 506 
 
N                 5.4681503270       17.1211737037        5.1385949526
C                 4.3922353055       16.1006683222        5.1679523068
C                 3.6825691789       16.0406543076        3.8027341010
O                 3.3725524690       14.9525512449        3.3107973237
C                 3.3111438651       16.5020572362        6.2210945953
C                 2.4239621871       15.2997128940        6.4902434379
C                 1.2520547238       15.4280282414        7.4965207415
O                 1.1491514053       16.4774819583        8.1409602094
O                 0.4810613201       14.4298684847        7.5764513699
H                 5.4609101122       17.8460103260        5.8478467529
H                 4.8162074045       15.1201195566        5.3922200951
H                 3.8001235897       16.8254329242        7.1402449166
H                 2.7218007123       17.3172231191        5.8194218545
H                 1.9758097549       14.9475189903        5.5557670211
H                 3.0334958021       14.4725999294        6.8708899439
N                 3.3997144547       17.2097852311        3.2302823492
C                 2.7887724123       17.2488534972        1.9524348244
C                 3.6829401239       16.5548171256        0.9185496108
O                 3.2076198244       15.8067334869        0.0607591968
C                 2.5719105780       18.7170377886        1.5124276933
C                 1.4399326726       19.3872470087        2.3180548307
C                 1.3562155405       20.8269389721        1.8984877841
C                 0.0613050983       18.8411487799        2.0132818201
H                 3.6118545736       18.0744111902        3.7140059877
H                 1.8409904961       16.6970574369        1.9644661558
H                 3.5085548237       19.2519003784        1.6634440886
H                 2.3155999974       18.7199056852        0.4527309833
H                 1.6373717666       19.2987091713        3.3828502687
H                 0.5892199471       21.3470462898        2.4688813385
H                 2.2979488381       21.3501708668        2.0719231367
H                 1.1156140665       20.9067783249        0.8407328051
H                -0.6705713805       19.3830761473        2.6074817998
H                -0.1883239250       18.9592540789        0.9634035574
H                -0.0427371263       17.7862466650        2.2653935112
N                 4.9743244599       16.8501460759        0.9437895356
C                 5.8776158835       16.2750240845       -0.0604097288
C                 5.9835927172       14.7803532921        0.0989518972
O                 5.9515518086       13.9441039127       -0.8454145535
C                 7.2629255771       16.8583481662        0.0801138020
C                 8.2598859019       16.4621309382       -0.9780859082
O                 9.3210341968       15.9078168378       -0.6873313050
N                 7.8517847816       16.7075484388       -2.1658585684
H                 5.3519177963       17.5069019491        1.6199060711
H                 5.4330356689       16.4577201767       -1.0476800393
H                 7.1701041373       17.9506237714        0.0767891454
H                 7.6631681714       16.5738813208        1.0576768602
H                 8.3233672788       16.3223936639       -2.9838752705
H                 6.9752301410       17.1881163569       -2.3005115922
N                 6.0351281611       14.3176556461        1.3578895281
C                 6.0752291471       12.8744424836        1.5808604319
C                 4.8136159238       12.1658131325        1.1126470434
O                 4.8131212951       11.0336735364        0.6353331100
C                 6.2207793203       12.3997238911        3.0499576174
C                 7.5702605151       12.7368964573        3.6585784506
C                 7.6564037514       12.4069804100        5.1778387809
O                 6.5984038212       12.0521024979        5.7636337711
O                 8.7919809812       12.5478253723        5.6768601186
H                 6.1387341499       14.9222948676        2.1701496675
H                 6.9006203776       12.4557106239        0.9864018293
H                 5.4300350985       12.8672304212        3.6415931951
H                 6.0841701965       11.3182374859        3.0424653998
H                 8.3682107213       12.2004231714        3.1436251417
H                 7.7683984729       13.8071815235        3.5629229644
N                 3.6551162983       12.8103981127        1.3349745090
C                 2.3574282830       12.2737940286        0.9349411757
C                 2.3134265755       12.1150090182       -0.6038959124
O                 1.8515939432       11.0908103456       -1.1138732172
C                 1.2583512831       13.1381861188        1.5659166914
H                 3.6409612285       13.6937174184        1.8366785954
H                 2.2847612798       11.2422195759        1.3067638911
H                 0.3003171332       12.6396223405        1.4614384450
H                 1.4929246230       13.2747237370        2.6167745279
H                 1.2318723650       14.1110094125        1.0835058101
N                 2.8303839899       13.1476675007       -1.3503251245
C                 2.8738593426       13.0842847008       -2.7883852329
C                 3.7186779367       11.9781799967       -3.2865126512
O                 3.3855371369       11.2610106840       -4.2296600646
C                 3.2327595377       14.3988510655       -3.3863966534
C                 2.1870819095       15.5239592384       -3.1126450878
C                 2.9293595275       16.7553539847       -3.5681653420
C                 0.9187099685       15.2662500831       -3.9400256660
H                 3.1640255999       13.9720453810       -0.8652504206
H                 1.8640357274       12.8095280240       -3.1427509895
H                 4.2076351645       14.6925833097       -2.9887497841
H                 3.3200968759       14.2586463360       -4.4640803112
H                 1.9533041710       15.5710251644       -2.0505147074
H                 2.3166640770       17.6487618815       -3.4664789614
H                 3.8324927829       16.8900497719       -2.9823215686
H                 3.2008995505       16.6520666290       -4.6158873767
H                 0.2507093959       16.1232722256       -3.9007870144
H                 1.1751008932       15.0908875377       -4.9827275160
H                 0.3829658550       14.3931335342       -3.5834264352
N                 4.9255250679       11.7982928012       -2.6648266097
C                 5.8439823055       10.6851582592       -3.0097801829
C                 5.2557145287        9.3221210589       -2.7143862676
O                 5.3783464879        8.4284496958       -3.5650485888
C                 7.2325464063       10.8812318282       -2.3975486520
C                 7.9183667515       12.1280795227       -2.9385258454
C                 9.3279171075       12.2482892414       -2.4128697543
O                 9.6560867344       11.5484059582       -1.4307965377
O                10.1005463192       13.0951665865       -2.9526341264
H                 5.1885261724       12.3799800109       -1.8808626220
H                 5.9505326199       10.7086313783       -4.1061111203
H                 7.1429785517       10.9582233553       -1.3108527494
H                 7.8361003525        9.9963453577       -2.6031488777
H                 7.9223892412       12.1221736817       -4.0312381526
H                 7.3766813840       13.0142113600       -2.5960657792
N                 4.5423085314        9.1656677957       -1.6345649478
C                 3.8496688599        7.8839254630       -1.3480944815
C                 2.7923642538        7.6366249670       -2.4205001381
O                 2.6256710540        6.5066902113       -2.9315113402
C                 3.2489325456        7.9605998288        0.0612059217
C                 2.2690826882        6.7643320830        0.4508423210
C                 3.1407137036        5.5183579544        0.5999886652
C                 1.3897709449        7.1152965744        1.6444887000
H                 4.5837721745        9.8378096945       -0.8740365878
H                 4.5765503637        7.0704835686       -1.4309729550
H                 4.0687762731        8.0119158595        0.7754629786
H                 2.6832875863        8.8943998097        0.1114862021
H                 1.6121043521        6.6093268655       -0.4113256145
H                 2.5410064317        4.6429313438        0.8215899651
H                 3.6659513062        5.3335911123       -0.3306828622
H                 3.8669745830        5.6603720215        1.3954994357
H                 0.6597391296        6.3258595673        1.7898645202
H                 1.9851228051        7.2057843197        2.5462962936
H                 0.8736988500        8.0501317256        1.4449345645
N                 1.9772972464        8.6219764992       -2.8095498638
C                 0.9304486432        8.4295402346       -3.7903039916
C                 1.5887615674        8.0149890872       -5.1242033098
O                 1.0417124272        7.1400544138       -5.8081768324
C                 0.0852974559        9.7296335973       -3.8388592676
C                -1.1305548191        9.6472644122       -4.7986466269
C                -1.7426321292       11.0729023411       -4.8697899316
C                -2.8981275460       11.2236051031       -5.8443732487
N                -4.1058757787       10.5870754167       -5.2544887472
H                 2.0470357210        9.5427687841       -2.3816373789
H                 0.3095196269        7.5766207618       -3.5009753643
H                -0.2615910625        9.9230542362       -2.8263460762
H                 0.7382273982       10.5421163739       -4.1621913405
H                -0.7962717447        9.3461887803       -5.7911923753
H                -1.8456192025        8.9187344891       -4.4336679402
H                -2.0776671406       11.3631817516       -3.8749581244
H                -0.9467707994       11.7533639055       -5.1756309835
H                -3.1045154830       12.2823177521       -6.0082982336
H                -2.6853726072       10.7554918992       -6.8032314293
H                -4.9725868485       10.8458175905       -5.7463859586
H                -3.9599471824        9.5138223630       -5.3061621352
H                -4.2037166486       10.8580416382       -4.2744096871
N                 2.7016258796        8.6340365346       -5.5545231930
C                 3.3188678085        8.2591270041       -6.7814513550
C                 3.8746869453        6.8410478101       -6.6731267052
O                 3.8273745164        6.1367577151       -7.6774937164
C                 4.5075787723        9.0985806150       -7.0610430591
C                 4.0839596685       10.4752766608       -7.6025074369
O                 2.9069957546       10.6616030826       -7.9413425794
O                 5.0468843960       11.2871509796       -7.6410482347
H                 3.0124524038        9.4790666043       -5.0815206286
H                 2.6032028801        8.2798993280       -7.6114545291
H                 5.1063425531        9.2350542781       -6.1576672935
H                 5.1372265584        8.6297358181       -7.8218391553
N                 4.4426342130        6.4288976066       -5.5401556879
C                 5.0323152201        5.1154680917       -5.4614978639
C                 3.9850483420        4.0116041331       -5.7017649006
O                 4.3287061073        2.9207469787       -6.1188590012
C                 5.7619658305        4.9333283590       -4.1593914002
H                 4.5505371268        7.0517004450       -4.7483243723
H                 5.7470660458        5.0060888307       -6.2902154620
H                 6.2128436014        3.9461349305       -4.1244284986
H                 6.5526185931        5.6732929969       -4.0710283748
H                 5.0713733939        5.0494994979       -3.3255080390
N                 2.7087762482        4.3007179862       -5.4165143037
C                 1.6232513051        3.2870115057       -5.6023513574
C                 1.0985622356        3.4434923617       -7.0131685660
O                 1.1354506393        2.5619352218       -7.8483001740
C                 0.6510901899        3.4307321649       -4.4554631312
C                 1.4685810499        3.3760181194       -3.1814851990
C                 0.7451664455        2.9778196408       -1.9167086059
O                 1.2931852697        2.2408465953       -1.0926016746
N                -0.4550973770        3.5364733362       -1.6915540879
H                 2.4546816592        5.2095850297       -5.0633645663
H                 2.1311711722        2.3146345819       -5.5687475672
H                 0.0924674867        4.3611479245       -4.5353633515
H                -0.0560974583        2.5983384040       -4.5051942516
H                 2.3012793591        2.6803428442       -3.3051815870
H                 1.9055165237        4.3609510684       -2.9886690330
H                -0.9125122690        4.0570744250       -2.4213893464
H                -1.0087269813        3.0955271122       -0.9589815780
O                 9.0782349837       15.3508119301       -4.1316340103
H                 9.1472809248       14.3957759351       -3.8925702428
H                 9.8462625662       15.6574748480       -3.6270842687
O                 7.4544171887       11.4396815936       -6.6697763754
H                 7.9477656144       11.5471751511       -7.4885843767
H                 6.5402910605       11.2187575202       -6.9722157473
O                 9.0419967249        6.6452355132       -1.3574421911
H                 9.5617025299        7.3575940435       -0.9848071451
H                 8.7816557015        6.9354910933       -2.2455164917
O                 8.3133163492        7.6927359857       -4.1036264657
H                 8.7578046859        8.3818758834       -4.6290912074
H                 7.3737343220        7.9156089132       -4.0875998678
O                 9.4536853867        9.8881009118       -5.2618629112
H                 9.6605741663       10.3946707082       -4.4737960927
H                 8.7401588117       10.3791558763       -5.7171717717
O                12.2989541148       14.2419498884       -2.0206326739
H                12.2995066819       14.4100361850       -1.0782778742
H                11.4480456448       13.8093836226       -2.2274894263
O                 6.6452355132        9.0419967249        1.3574421911
H                 7.3575940435        9.5617025299        0.9848071451
H                 6.9354910933        8.7816557015        2.2455164917
O                 7.3007291638       14.9337519711       -9.5549799562
H                 7.8975510421       15.1813555024       -8.8290675292
H                 6.6077601337       14.3952454232       -9.1713681986
O                 5.7867553816        1.4467468218       -4.4555000646
H                 6.4057644422        0.8848605245       -4.9331555772
H                 5.3615534281        1.9932885152       -5.1352346723
O                 1.4467468218        5.7867553816        4.4555000646
H                 0.8848605245        6.4057644422        4.9331555772
H                 1.9932885152        5.3615534281        5.1352346723
N                11.2309201753       16.3931035341       -5.7726238866
C                11.4253128935       15.7447546915       -7.0622879925
C                10.4326541002       16.2554660831       -8.0861422677
O                 9.2395904861       16.1757083619       -7.8525496729
C                11.1906808492       14.2329827872       -6.8323698630
C                11.9687232166       13.3884683324       -7.8630962208
C                11.7367012739       11.8552275451       -7.6933621721
N                12.4483515806       11.1547978968       -8.7583335104
C                12.3094627542        9.8562893598       -9.0438027704
N                11.3698529053        9.1411444203       -8.4133017040
N                12.9997051443        9.3669854750      -10.0774657823
H                10.4275454666       16.0641507627       -5.2555526587
H                12.4558382549       15.9386375193       -7.3709441900
H                11.5210032936       13.9640607478       -5.8292002658
H                10.1215424536       14.0314424400       -6.8983532547
H                11.6307741609       13.6682090134       -8.8610950542
H                13.0292739339       13.6039394330       -7.7536132775
H                12.0839257227       11.5303524904       -6.7081427844
H                10.6709911689       11.6373686573       -7.7671920618
H                13.2005833768       11.6693055433       -9.1959811337
H                11.1075553838        9.4000074429       -7.4722468841
H                11.3124885137        8.1435828235       -8.5949408858
H                13.6697657228        9.9321690386      -10.5719450743
H                12.9112733611        8.3914653453      -10.3091728345
N                 6.3552308419       19.9358171357       -9.5023733894
C                 6.1042574258       19.8986968585       -8.0617828306
C                 6.8337040278       21.0035870756       -7.2897766668
O                 6.2993310072       21.6421296013       -6.3615883981
C                 6.4890424349       18.5209329333       -7.4933799476
C                 6.0525644398       18.2596814175       -6.0121278903
C                 6.4534884269       16.8166228163       -5.5853747234
N                 5.4711437709       15.9372611679       -6.2869613656
C                 5.6433580625       14.6302251284       -6.3768857090
N                 6.8149954916       14.1531946760       -6.0021713489
N                 4.7299444493       13.8632940581       -6.9486078283
H                 6.6638490171       19.0868457949       -9.9709374690
H                 5.0312035513       20.0732787334       -7.8909799060
H                 5.9959761801       17.7662680012       -8.1063764899
H                 7.5680479113       18.3911033406       -7.5742050195
H                 6.5347807005       18.9919001418       -5.3690358293
H                 4.9765918706       18.3850227828       -5.9184144126
H                 7.4595164734       16.6141968575       -5.9486457833
H                 6.3673065931       16.6797239746       -4.5114056697
H                 4.6128057046       16.3553349837       -6.6367319288
H                 7.4619091097       14.6980260458       -5.4590014422
H                 6.9886039456       13.1506017842       -6.0769560044
H                 3.8298435110       14.2372860522       -7.2071061110
H                 4.8608501682       12.8613324807       -7.1055996157
N                14.3176556461        6.0351281611       -1.3578895281
C                12.8744424836        6.0752291471       -1.5808604319
C                12.1658131325        4.8136159238       -1.1126470434
O                11.0336735364        4.8131212951       -0.6353331100
C                12.3997238911        6.2207793203       -3.0499576174
C                12.7368964573        7.5702605151       -3.6585784506
C                12.4069804100        7.6564037514       -5.1778387809
O                12.0521024979        6.5984038212       -5.7636337711
O                12.5478253723        8.7919809812       -5.6768601186
H                14.9222948676        6.1387341499       -2.1701496675
H                12.4557106239        6.9006203776       -0.9864018293
H                12.8672304212        5.4300350985       -3.6415931951
H                11.3182374859        6.0841701965       -3.0424653998
H                12.2004231714        8.3682107213       -3.1436251417
H                13.8071815235        7.7683984729       -3.5629229644
N                11.7982928012        4.9255250679        2.6648266097
C                10.6851582592        5.8439823055        3.0097801829
C                 9.3221210589        5.2557145287        2.7143862676
O                 8.4284496958        5.3783464879        3.5650485888
C                10.8812318282        7.2325464063        2.3975486520
C                12.1280795227        7.9183667515        2.9385258454
C                12.2482892414        9.3279171075        2.4128697543
O                11.5484059582        9.6560867344        1.4307965377
O                13.0951665865       10.1005463192        2.9526341264
H                12.3799800109        5.1885261724        1.8808626220
H                10.7086313783        5.9505326199        4.1061111203
H                10.9582233553        7.1429785517        1.3108527494
H                 9.9963453577        7.8361003525        2.6031488777
H                12.1221736817        7.9223892412        4.0312381526
H                13.0142113600        7.3766813840        2.5960657792
N                 9.1656677957        4.5423085314        1.6345649478
C                 7.8839254630        3.8496688599        1.3480944815
C                 7.6366249670        2.7923642538        2.4205001381
O                 6.5066902113        2.6256710540        2.9315113402
C                 7.9605998288        3.2489325456       -0.0612059217
C                 6.7643320830        2.2690826882       -0.4508423210
C                 5.5183579544        3.1407137036       -0.5999886652
C                 7.1152965744        1.3897709449       -1.6444887000
H                 9.8378096945        4.5837721745        0.8740365878
H                 7.0704835686        4.5765503637        1.4309729550
H                 8.0119158595        4.0687762731       -0.7754629786
H                 8.8943998097        2.6832875863       -0.1114862021
H                 6.6093268655        1.6121043521        0.4113256145
H                 4.6429313438        2.5410064317       -0.8215899651
H                 5.3335911123        3.6659513062        0.3306828622
H                 5.6603720215        3.8669745830       -1.3954994357
H                 6.3258595673        0.6597391296       -1.7898645202
H                 7.2057843197        1.9851228051       -2.5462962936
H                 8.0501317256        0.8736988500       -1.4449345645
N                 6.4288976066        4.4426342130        5.5401556879
C                 5.1154680917        5.0323152201        5.4614978639
C                 4.0116041331        3.9850483420        5.7017649006
O                 2.9207469787        4.3287061073        6.1188590012
C                 4.9333283590        5.7619658305        4.1593914002
H                 7.0517004450        4.5505371268        4.7483243723
H                 5.0060888307        5.7470660458        6.2902154620
H                 3.9461349305        6.2128436014        4.1244284986
H                 5.6732929969        6.5526185931        4.0710283748
H                 5.0494994979        5.0713733939        3.3255080390
N                 4.3007179862        2.7087762482        5.4165143037
C                 3.2870115057        1.6232513051        5.6023513574
C                 3.4434923617        1.0985622356        7.0131685660
O                 2.5619352218        1.1354506393        7.8483001740
C                 3.4307321649        0.6510901899        4.4554631312
C                 3.3760181194        1.4685810499        3.1814851990
C                 2.9778196408        0.7451664455        1.9167086059
O                 2.2408465953        1.2931852697        1.0926016746
N                 3.5364733362       -0.4550973770        1.6915540879
H                 5.2095850297        2.4546816592        5.0633645663
H                 2.3146345819        2.1311711722        5.5687475672
H                 4.3611479245        0.0924674867        4.5353633515
H                 2.5983384040       -0.0560974583        4.5051942516
H                 2.6803428442        2.3012793591        3.3051815870
H                 4.3609510684        1.9055165237        2.9886690330
H                 4.0570744250       -0.9125122690        2.4213893464
H                 3.0955271122       -1.0087269813        0.9589815780
N                -3.6551162983       12.8103981127       -1.3349745090
C                -2.3574282830       12.2737940286       -0.9349411757
C                -2.3134265755       12.1150090182        0.6038959124
O                -1.8515939432       11.0908103456        1.1138732172
C                -1.2583512831       13.1381861188       -1.5659166914
H                -3.6409612285       13.6937174184       -1.8366785954
H                -2.2847612798       11.2422195759       -1.3067638911
H                -0.3003171332       12.6396223405       -1.4614384450
H                -1.4929246230       13.2747237370       -2.6167745279
H                -1.2318723650       14.1110094125       -1.0835058101
N                -2.8303839899       13.1476675007        1.3503251245
C                -2.8738593426       13.0842847008        2.7883852329
C                -3.7186779367       11.9781799967        3.2865126512
O                -3.3855371369       11.2610106840        4.2296600646
C                -3.2327595377       14.3988510655        3.3863966534
C                -2.1870819095       15.5239592384        3.1126450878
C                -2.9293595275       16.7553539847        3.5681653420
C                -0.9187099685       15.2662500831        3.9400256660
H                -3.1640255999       13.9720453810        0.8652504206
H                -1.8640357274       12.8095280240        3.1427509895
H                -4.2076351645       14.6925833097        2.9887497841
H                -3.3200968759       14.2586463360        4.4640803112
H                -1.9533041710       15.5710251644        2.0505147074
H                -2.3166640770       17.6487618815        3.4664789614
H                -3.8324927829       16.8900497719        2.9823215686
H                -3.2008995505       16.6520666290        4.6158873767
H                -0.2507093959       16.1232722256        3.9007870144
H                -1.1751008932       15.0908875377        4.9827275160
H                -0.3829658550       14.3931335342        3.5834264352
N                -4.5423085314        9.1656677957        1.6345649478
C                -3.8496688599        7.8839254630        1.3480944815
C                -2.7923642538        7.6366249670        2.4205001381
O                -2.6256710540        6.5066902113        2.9315113402
C                -3.2489325456        7.9605998288       -0.0612059217
C                -2.2690826882        6.7643320830       -0.4508423210
C                -3.1407137036        5.5183579544       -0.5999886652
C                -1.3897709449        7.1152965744       -1.6444887000
H                -4.5837721745        9.8378096945        0.8740365878
H                -4.5765503637        7.0704835686        1.4309729550
H                -4.0687762731        8.0119158595       -0.7754629786
H                -2.6832875863        8.8943998097       -0.1114862021
H                -1.6121043521        6.6093268655        0.4113256145
H                -2.5410064317        4.6429313438       -0.8215899651
H                -3.6659513062        5.3335911123        0.3306828622
H                -3.8669745830        5.6603720215       -1.3954994357
H                -0.6597391296        6.3258595673       -1.7898645202
H                -1.9851228051        7.2057843197       -2.5462962936
H                -0.8736988500        8.0501317256       -1.4449345645
N                -1.9772972464        8.6219764992        2.8095498638
C                -0.9304486432        8.4295402346        3.7903039916
C                -1.5887615674        8.0149890872        5.1242033098
O                -1.0417124272        7.1400544138        5.8081768324
C                -0.0852974559        9.7296335973        3.8388592676
C                 1.1305548191        9.6472644122        4.7986466269
C                 1.7426321292       11.0729023411        4.8697899316
C                 2.8981275460       11.2236051031        5.8443732487
N                 4.1058757787       10.5870754167        5.2544887472
H                -2.0470357210        9.5427687841        2.3816373789
H                -0.3095196269        7.5766207618        3.5009753643
H                 0.2615910625        9.9230542362        2.8263460762
H                -0.7382273982       10.5421163739        4.1621913405
H                 0.7962717447        9.3461887803        5.7911923753
H                 1.8456192025        8.9187344891        4.4336679402
H                 2.0776671406       11.3631817516        3.8749581244
H                 0.9467707994       11.7533639055        5.1756309835
H                 3.1045154830       12.2823177521        6.0082982336
H                 2.6853726072       10.7554918992        6.8032314293
H                 4.9725868485       10.8458175905        5.7463859586
H                 3.9599471824        9.5138223630        5.3061621352
H                 4.2037166486       10.8580416382        4.2744096871
N                -2.7087762482        4.3007179862        5.4165143037
C                -1.6232513051        3.2870115057        5.6023513574
C                -1.0985622356        3.4434923617        7.0131685660
O                -1.1354506393        2.5619352218        7.8483001740
C                -0.6510901899        3.4307321649        4.4554631312
C                -1.4685810499        3.3760181194        3.1814851990
C                -0.7451664455        2.9778196408        1.9167086059
O                -1.2931852697        2.2408465953        1.0926016746
N                 0.4550973770        3.5364733362        1.6915540879
H                -2.4546816592        5.2095850297        5.0633645663
H                -2.1311711722        2.3146345819        5.5687475672
H                -0.0924674867        4.3611479245        4.5353633515
H                 0.0560974583        2.5983384040        4.5051942516
H                -2.3012793591        2.6803428442        3.3051815870
H                -1.9055165237        4.3609510684        2.9886690330
H                 0.9125122690        4.0570744250        2.4213893464
H                 1.0087269813        3.0955271122        0.9589815780
N                 8.6219764992       -1.9772972464       -2.8095498638
C                 8.4295402346       -0.9304486432       -3.7903039916
C                 8.0149890872       -1.5887615674       -5.1242033098
O                 7.1400544138       -1.0417124272       -5.8081768324
C                 9.7296335973       -0.0852974559       -3.8388592676
C                 9.6472644122        1.1305548191       -4.7986466269
C                11.0729023411        1.7426321292       -4.8697899316
C                11.2236051031        2.8981275460       -5.8443732487
N                10.5870754167        4.1058757787       -5.2544887472
H                 9.5427687841       -2.0470357210       -2.3816373789
H                 7.5766207618       -0.3095196269       -3.5009753643
H                 9.9230542362        0.2615910625       -2.8263460762
H                10.5421163739       -0.7382273982       -4.1621913405
H                 9.3461887803        0.7962717447       -5.7911923753
H                 8.9187344891        1.8456192025       -4.4336679402
H                11.3631817516        2.0776671406       -3.8749581244
H                11.7533639055        0.9467707994       -5.1756309835
H                12.2823177521        3.1045154830       -6.0082982336
H                10.7554918992        2.6853726072       -6.8032314293
H                10.8458175905        4.9725868485       -5.7463859586
H                 9.5138223630        3.9599471824       -5.3061621352
H                10.8580416382        4.2037166486       -4.2744096871
N                 4.3007179862       -2.7087762482       -5.4165143037
C                 3.2870115057       -1.6232513051       -5.6023513574
C                 3.4434923617       -1.0985622356       -7.0131685660
O                 2.5619352218       -1.1354506393       -7.8483001740
C                 3.4307321649       -0.6510901899       -4.4554631312
C                 3.3760181194       -1.4685810499       -3.1814851990
C                 2.9778196408       -0.7451664455       -1.9167086059
O                 2.2408465953       -1.2931852697       -1.0926016746
N                 3.5364733362        0.4550973770       -1.6915540879
H                 5.2095850297       -2.4546816592       -5.0633645663
H                 2.3146345819       -2.1311711722       -5.5687475672
H                 4.3611479245       -0.0924674867       -4.5353633515
H                 2.5983384040        0.0560974583       -4.5051942516
H                 2.6803428442       -2.3012793591       -3.3051815870
H                 4.3609510684       -1.9055165237       -2.9886690330
H                 4.0570744250        0.9125122690       -2.4213893464
H                 3.0955271122        1.0087269813       -0.9589815780
N                 4.6700927503       -0.6279142699       -7.2043390287
C                 5.2944472671       -0.2558069651       -8.4650376423
C                 5.6414092351        1.2655043721       -8.4632820547
O                 5.0622140479        2.0608292075       -9.1968414094
C                 4.4595795014       -0.6629236956       -9.6729931684
H                 5.3439163610       -0.7544371204       -6.4623258659
H                 6.2578096222       -0.7860751099       -8.4988546877
H                 5.0227523693       -0.4446276078      -10.5780487614
H                 4.2509880894       -1.7188492122       -9.6179168697
H                 3.5267527585       -0.1117973636       -9.7014209975
N                 6.6581472981        1.6593726102       -7.6629443708
C                 7.1420309541        3.0189927633       -7.8395407735
C                 8.1334883633        3.6555944563       -6.8484906399
O                 8.9477580775        4.4435026155       -7.3629552172
O                 8.0713299721        3.4239692085       -5.6218665516
H                 7.1647245460        0.9905182801       -7.1047254184
H                 7.6052524310        3.1061362633       -8.8322589835
H                 6.2541224872        3.6648350020       -7.8615200121
H                 6.2675911245       16.7175333305        5.2278634271
H                 0.6931088710        4.3105986867       -7.3025371723
H                11.9522078743       16.2513434656       -5.2533473340
H                10.7588244517       16.6532434906       -8.9436887888
H                 5.6002179123       20.1694172875       -9.9329386518
H                 7.7772662183       21.2378118854       -7.5239328780
H                14.5540138793        6.7004110338       -0.7997376805
H                12.6225693660        3.9270603511       -1.1860838167
H                12.3558656641        4.8520372944        3.3674730710
H                 8.3881677594        2.2109010351        2.7320831231
H                 6.8761493404        4.7970600813        6.2361069725
H                 4.3105986867        0.6931088710        7.3025371723
H                -4.0682348877       12.2237702154       -1.8782982993
H                -4.5999611514       11.7881781969        2.8538011865
H                -5.3968865318        9.0006877299        1.8636457614
H                -2.4390106612        8.4511111442        5.4189473170
H                -3.3168693822        3.9860633332        4.8323780269
H                -0.6931088710        4.3105986867        7.3025371723
H                 8.0472416173       -1.8589843376       -2.1271409900
H                 8.4511111442       -2.4390106612       -5.4189473170
H                 3.9860633332       -3.3168693822       -4.8323780269
