544
Properties=species:S:1:pos:R:3:Z:I:1 pbc="F F F"
N       6.16900000       3.89900000      16.82700000        7 
C       7.25800000       4.02000000      15.89300000        6 
C       8.12300000       2.76100000      15.95200000        6 
O       8.43200000       2.18500000      17.00000000        8 
C       4.86600000       4.25100000      16.54800000        6 
O       4.49000000       4.71300000      15.45900000        8 
H       6.39800000       3.53500000      17.72200000        1 
H       4.17000000       4.06700000      17.40000000        1 
C       8.15300000       5.26000000      16.16200000        6 
C       9.02500000       5.01500000      17.37600000        6 
C       9.01900000       5.58900000      14.96500000        6 
H       6.83600000       4.10800000      14.84400000        1 
H       7.48000000       6.13700000      16.37300000        1 
H       9.35500000       5.98400000      17.82300000        1 
H       9.93300000       4.43300000      17.08500000        1 
H       8.46700000       4.44200000      18.15700000        1 
H       9.72500000       6.42000000      15.20800000        1 
H       8.39700000       5.89700000      14.09100000        1 
H       9.61700000       4.69300000      14.66900000        1 
N       8.52600000       2.31800000      14.76500000        7 
C       9.36700000       1.14200000      14.63000000        6 
C       8.92200000       0.22500000      13.50800000        6 
O       8.41300000       0.68100000      12.48400000        8 
H       8.32200000       2.68800000      14.01600000        1 
H      10.28000000       1.41900000      14.45400000        1 
H       9.35600000       0.63600000      15.45700000        1 
N       9.11600000      -1.07500000      13.70300000        7 
C       8.73800000      -2.06800000      12.70400000        6 
C       7.28700000      -2.49700000      12.89600000        6 
O       6.57000000      -1.94000000      13.72800000        8 
C       9.66400000      -3.27300000      12.77900000        6 
H       9.46800000      -1.41100000      14.41300000        1 
H       8.82300000      -1.67800000      11.82000000        1 
H       9.41800000      -3.90600000      12.08700000        1 
H      10.57800000      -2.97600000      12.64600000        1 
H       9.57500000      -3.68500000      13.65300000        1 
N       6.85900000      -3.48900000      12.12100000        7 
C       5.49400000      -3.99300000      12.20200000        6 
C       4.59200000      -3.26000000      11.21500000        6 
O       5.07200000      -2.58100000      10.30700000        8 
C       5.46400000      -5.49600000      11.91500000        6 
C       6.26300000      -6.37800000      12.87700000        6 
C       5.68400000      -6.31000000      14.28300000        6 
C       6.29900000      -7.81500000      12.38000000        6 
H       7.34500000      -3.89000000      11.53600000        1 
H       5.14800000      -3.84500000      13.09600000        1 
H       5.81900000      -5.64400000      11.02500000        1 
H       4.54200000      -5.79400000      11.94700000        1 
H       7.17600000      -6.05400000      12.91500000        1 
H       6.16300000      -6.93300000      14.85100000        1 
H       4.74400000      -6.54900000      14.24800000        1 
H       5.78400000      -5.40700000      14.62200000        1 
H       6.80600000      -8.35400000      13.00800000        1 
H       6.72400000      -7.83600000      11.50800000        1 
H       5.39100000      -8.15000000      12.31400000        1 
N       3.28400000      -3.40300000      11.40000000        7 
C       2.31100000      -2.76100000      10.52400000        6 
C       2.32400000      -1.24800000      10.71700000        6 
O       3.00100000      -0.73200000      11.60700000        8 
C       0.92000000      -3.31600000      10.78200000        6 
H       2.93200000      -3.87000000      12.03000000        1 
H       2.54400000      -2.94800000       9.60100000        1 
H       0.29000000      -2.87900000      10.18700000        1 
H       0.92600000      -4.27100000      10.61400000        1 
H       0.67700000      -3.14400000      11.70500000        1 
N       1.57000000      -0.54500000       9.87800000        7 
C       1.49500000       0.91000000       9.94100000        6 
C       1.73200000       1.49600000       8.55400000        6 
O       1.11000000       1.07600000       7.57800000        8 
C       0.14400000       1.37200000      10.51600000        6 
C      -0.12600000       0.68600000      11.85100000        6 
C       0.11900000       2.89300000      10.66000000        6 
H       1.08700000      -0.89100000       9.25700000        1 
H       2.19500000       1.23900000      10.52500000        1 
H      -0.56300000       1.11900000       9.90200000        1 
H      -0.70200000       1.24700000      12.39300000        1 
H       0.71800000       0.53900000      12.30700000        1 
H      -0.56500000      -0.16200000      11.68300000        1 
H      -0.54100000       3.25500000      10.04700000        1 
H       0.99600000       3.24700000      10.44600000        1 
H      -0.11400000       3.12900000      11.57100000        1 
N       2.63400000       2.46900000       8.47400000        7 
C       2.96600000       3.10600000       7.20600000        6 
C       4.45300000       3.43900000       7.16600000        6 
O       5.13100000       3.41200000       8.19300000        8 
C       2.11800000       4.37300000       6.97500000        6 
C       0.64300000       4.01500000       6.86600000        6 
C       2.34500000       5.38300000       8.09400000        6 
H       3.07000000       2.78100000       9.14700000        1 
H       2.78100000       2.48700000       6.48300000        1 
H       2.38900000       4.78500000       6.14000000        1 
H       0.14700000       4.80300000       6.59300000        1 
H       0.53700000       3.31300000       6.20500000        1 
H       0.32700000       3.70800000       7.73000000        1 
H       1.75100000       6.13800000       7.95900000        1 
H       2.15300000       4.96000000       8.94500000        1 
H       3.26800000       5.68100000       8.07200000        1 
N       4.95000000       3.75500000       5.97400000        7 
C       6.35000000       4.11300000       5.78900000        6 
C       6.90300000       3.36800000       4.57800000        6 
O       6.17100000       3.09200000       3.62700000        8 
H       4.48900000       3.76800000       5.24800000        1 
C       6.51400000       5.63300000       5.61700000        6 
C       5.80500000       6.37500000       6.74700000        6 
C       7.99300000       6.00100000       5.55000000        6 
H       6.85800000       3.83900000       6.56800000        1 
H       6.10200000       5.90100000       4.78000000        1 
H       6.29000000       7.18700000       6.95900000        1 
H       5.76700000       5.80000000       7.52700000        1 
H       4.90700000       6.60000000       6.45700000        1 
H       8.26100000       6.05100000       4.61900000        1 
H       8.50600000       5.31500000       6.00400000        1 
H       8.13900000       6.85700000       5.98100000        1 
N       8.19200000       3.04000000       4.61500000        7 
C       8.82200000       2.31100000       3.51900000        6 
C       8.91900000       0.82500000       3.84900000        6 
O       9.06800000       0.44800000       5.01100000        8 
C      10.21800000       2.86900000       3.22000000        6 
C      11.21200000       2.66900000       4.32800000        6 
C      11.94600000       1.54500000       4.57800000        6 
C      11.59600000       3.62600000       5.32300000        6 
N      12.75300000       1.73900000       5.67200000        7 
C      12.55900000       3.00900000       6.14700000        6 
C      11.21800000       4.94300000       5.60000000        6 
C      13.14600000       3.66300000       7.22800000        6 
C      11.80100000       5.59000000       6.67400000        6 
C      12.75500000       4.95000000       7.47500000        6 
H       8.72300000       3.22800000       5.26400000        1 
H       8.28400000       2.40700000       2.71900000        1 
H      10.56600000       2.43000000       2.42800000        1 
H      10.14300000       3.82300000       3.05900000        1 
H      11.90000000       0.75900000       4.08300000        1 
H      13.29500000       1.15900000       6.00300000        1 
H      10.58400000       5.37400000       5.07400000        1 
H      13.78000000       3.24100000       7.76200000        1 
H      11.55600000       6.46600000       6.86800000        1 
H      13.13100000       5.41000000       8.19000000        1 
N       8.83400000      -0.01300000       2.82000000        7 
C       8.97500000      -1.45400000       2.99600000        6 
C       8.05000000      -2.22700000       2.06100000        6 
O       8.02400000      -1.98500000       0.85500000        8 
C      10.42700000      -1.87300000       2.75200000        6 
C      10.73400000      -3.37000000       2.84500000        6 
C      12.20900000      -3.62700000       2.57800000        6 
C      10.32900000      -3.92800000       4.20100000        6 
H       8.69400000       0.22900000       2.00700000        1 
H       8.74200000      -1.68700000       3.90800000        1 
H      10.98600000      -1.42400000       3.40600000        1 
H      10.68100000      -1.58200000       1.86200000        1 
H      10.22500000      -3.84000000       2.16600000        1 
H      12.38000000      -4.57900000       2.64200000        1 
H      12.73600000      -3.15100000       3.23900000        1 
H      12.42900000      -3.30900000       1.68800000        1 
H      10.62700000      -4.84900000       4.26400000        1 
H       9.36400000      -3.88600000       4.28500000        1 
H      10.74700000      -3.39700000       4.89700000        1 
N       1.54500000      -0.72900000       4.57600000        7 
C       2.02900000      -2.10200000       4.68700000        6 
C       3.07200000      -2.22300000       5.79200000        6 
O       3.29300000      -1.28500000       6.55800000        8 
C       0.86700000      -3.06400000       4.95500000        6 
C       0.36300000      -3.16800000       6.39800000        6 
C       0.02900000      -1.79800000       6.96200000        6 
C      -0.84700000      -4.08600000       6.46900000        6 
H       1.68000000      -0.25200000       5.27800000        1 
H       2.44600000      -2.36000000       3.85200000        1 
H       1.14500000      -3.95300000       4.68600000        1 
H       0.11400000      -2.78700000       4.41000000        1 
H       1.05900000      -3.55700000       6.95000000        1 
H      -0.51200000      -1.90700000       7.75900000        1 
H      -0.46100000      -1.29700000       6.29300000        1 
H       0.85400000      -1.33800000       7.17900000        1 
H      -1.14400000      -4.14700000       7.39000000        1 
H      -0.59600000      -4.96500000       6.14300000        1 
H      -1.55500000      -3.71900000       5.91600000        1 
N       3.71200000      -3.38600000       5.86700000        7 
C       4.71500000      -3.64600000       6.89300000        6 
C       6.05400000      -3.02000000       6.51800000        6 
O       6.44800000      -3.02900000       5.35200000        8 
C       4.88400000      -5.15200000       7.10400000        6 
C       3.66500000      -5.82400000       7.65500000        6 
C       3.34000000      -5.98600000       8.97000000        6 
C       2.60600000      -6.43100000       6.90300000        6 
N       2.14500000      -6.65300000       9.08400000        7 
C       1.67400000      -6.93800000       7.82900000        6 
C       2.35700000      -6.59300000       5.53700000        6 
C       0.51100000      -7.59600000       7.43300000        6 
C       1.20200000      -7.24700000       5.14600000        6 
C       0.29400000      -7.74000000       6.09100000        6 
H       3.58200000      -4.04500000       5.33100000        1 
H       4.42200000      -3.25400000       7.73000000        1 
H       5.09300000      -5.56600000       6.25200000        1 
H       5.61100000      -5.30000000       7.72900000        1 
H       3.85300000      -5.68600000       9.68500000        1 
H       1.75500000      -6.85900000       9.82300000        1 
H       2.95500000      -6.26800000       4.90300000        1 
H      -0.09400000      -7.92500000       8.05800000        1 
H       1.02500000      -7.36100000       4.24000000        1 
H      -0.47400000      -8.17500000       5.79900000        1 
N       6.74800000      -2.47700000       7.51200000        7 
C       8.06500000      -1.89100000       7.29600000        6 
C       8.38800000      -0.88000000       8.39100000        6 
O       7.62000000      -0.70700000       9.33700000        8 
H       6.47600000      -2.43600000       8.32700000        1 
C       9.14000000      -2.98200000       7.25500000        6 
C       9.42600000      -3.75000000       8.55100000        6 
C       8.23500000      -4.59500000       8.97900000        6 
C      10.66400000      -4.61900000       8.38600000        6 
H       8.07100000      -1.42700000       6.44400000        1 
H       9.97400000      -2.57000000       6.98000000        1 
H       8.87600000      -3.63700000       6.59000000        1 
H       9.60800000      -3.11500000       9.26100000        1 
H       8.53200000      -5.25300000       9.62700000        1 
H       7.86900000      -5.04100000       8.19900000        1 
H       7.56400000      -4.01900000       9.37600000        1 
H      10.82900000      -5.09400000       9.21500000        1 
H      11.42000000      -4.05200000       8.17200000        1 
H      10.51100000      -5.25200000       7.66700000        1 
N       9.53100000      -0.21400000       8.25500000        7 
C       9.96700000       0.76800000       9.24000000        6 
C       9.20900000       2.08100000       9.07900000        6 
O       8.87800000       2.48700000       7.96400000        8 
C      11.47100000       1.02000000       9.12000000        6 
C      12.31200000      -0.15000000       9.52700000        6 
C      12.74000000      -0.45400000      10.78600000        6 
C      12.83400000      -1.17200000       8.66900000        6 
N      13.49400000      -1.60200000      10.76600000        7 
C      13.56700000      -2.06200000       9.47800000        6 
C      12.75300000      -1.42000000       7.29500000        6 
C      14.21300000      -3.18300000       8.96000000        6 
C      13.39500000      -2.53300000       6.78300000        6 
C      14.11600000      -3.40000000       7.61300000        6 
H      10.07500000      -0.31500000       7.59600000        1 
H       9.78800000       0.42500000      10.13000000        1 
H      11.68100000       1.22900000       8.19700000        1 
H      11.70900000       1.76800000       9.68900000        1 
H      12.54800000       0.04400000      11.54800000        1 
H      13.86000000      -1.97100000      11.45100000        1 
H      12.27600000      -0.84900000       6.73700000        1 
H      14.69300000      -3.76000000       9.50900000        1 
H      13.34700000      -2.70900000       5.87100000        1 
H      14.53800000      -4.14100000       7.24100000        1 
N       8.94100000       2.73900000      10.20200000        7 
C       7.26600000       4.09000000      11.37200000        6 
O       7.62600000       3.77900000      12.50700000        8 
H       9.15800000       2.46300000      10.98600000        1 
C       8.24200000       4.02000000      10.20300000        6 
C       9.25000000       5.16800000      10.29600000        6 
C       8.67600000       6.57800000      10.45600000        6 
C       9.79600000       7.60300000      10.53500000        6 
C       7.72700000       6.90900000       9.31700000        6 
H       7.74100000       4.11600000       9.37800000        1 
H       9.78600000       5.16700000       9.48700000        1 
H       9.82500000       5.00500000      11.06000000        1 
H       8.17500000       6.62400000      11.28500000        1 
H       9.41000000       8.48100000      10.68000000        1 
H      10.29100000       7.59200000       9.70100000        1 
H      10.38300000       7.37200000      11.27200000        1 
H       7.44400000       7.83300000       9.40200000        1 
H       6.95700000       6.32100000       9.36800000        1 
H       8.18800000       6.78000000       8.47400000        1 
N       6.03400000       4.50200000      11.09100000        7 
C       5.00900000       4.61000000      12.12100000        6 
C       4.47400000       3.23100000      12.49200000        6 
O       4.87400000       2.22300000      11.90800000        8 
C       3.86400000       5.50900000      11.64800000        6 
C       4.26200000       6.94100000      11.46400000        6 
C       4.59100000       7.55600000      10.29100000        6 
C       4.37500000       7.93900000      12.48500000        6 
N       4.90100000       8.87500000      10.51900000        7 
C       4.77600000       9.13500000      11.85800000        6 
C       4.17600000       7.93700000      13.86900000        6 
C       4.98200000      10.31700000      12.56600000        6 
C       4.38000000       9.11200000      14.57000000        6 
C       4.77900000      10.28500000      13.91800000        6 
H       5.76600000       4.72600000      10.30500000        1 
H       5.39600000       5.00800000      12.91600000        1 
H       3.53900000       5.17900000      10.79600000        1 
H       3.15100000       5.48200000      12.30500000        1 
H       4.60400000       7.14200000       9.45800000        1 
H       5.13600000       9.44400000       9.91800000        1 
H       3.91100000       7.16200000      14.30900000        1 
H       5.24600000      11.09800000      12.13600000        1 
H       4.25000000       9.12200000      15.49100000        1 
H       4.90800000      11.06000000      14.41600000        1 
N       3.56800000       3.19200000      13.46400000        7 
C       2.97400000       1.93700000      13.90700000        6 
C       1.67600000       2.19400000      14.66500000        6 
O       1.43600000       3.29600000      15.15600000        8 
C       3.95300000       1.16600000      14.77800000        6 
O       0.83700000       1.30400000      14.80400000        8 
H       3.28000000       3.88400000      13.88500000        1 
H       2.76700000       1.39200000      13.13100000        1 
H       3.54000000       0.33400000      15.05600000        1 
H       4.75400000       0.98200000      14.26300000        1 
H       4.17400000       1.70200000      15.55500000        1 
C       1.74200000      -2.36800000      14.23500000        6 
O       0.93500000      -1.58000000      13.69700000        8 
C       1.80300000      -2.40000000      15.73400000        6 
O       2.49800000      -3.13500000      13.60100000        8 
H       0.99800000      -1.79000000      16.14400000        1 
H       2.76200000      -2.00200000      16.06500000        1 
H       1.69800000      -3.42800000      16.08100000        1 
O       6.75700000      -0.61000000      15.38100000        8 
H       6.60700000      -0.03400000      14.78800000        1 
H       7.42100000      -0.34000000      15.82000000        1 
O       5.67800000       0.57300000       8.06200000        8 
H       6.32200000       1.10700000       8.14000000        1 
H       5.00200000       0.96100000       8.37500000        1 
O       6.06800000       0.11200000       4.73400000        8 
H       6.43300000      -0.54400000       5.11100000        1 
H       6.20600000       0.78000000       5.22400000        1 
O       4.53300000       0.49200000       6.21900000        8 
H       4.78100000      -0.22900000       6.57200000        1 
H       3.70300000       0.43400000       6.10600000        1 
O       5.10600000       0.33800000      10.15000000        8 
H       5.80900000       0.77400000      10.29800000        1 
H       4.47700000       0.76400000      10.50900000        1 
O       6.20400000       0.23400000      12.03200000        8 
H       6.42100000       0.79900000      12.61500000        1 
H       5.71900000      -0.33600000      12.41500000        1 
N      13.61099982      11.25250034       9.30500000        7 
C      12.64499982      11.05150034       8.25500000        6 
C      11.63899982      12.20250034       8.25600000        6 
O      10.90599982      12.48150034       9.20900000        8 
C      11.86699982       9.71650034       8.38900000        6 
C      11.22999982       9.36350034       7.06100000        6 
C      12.77999982       8.59550034       8.83500000        6 
C      14.96399982      11.03550034       9.16100000        6 
O      15.49499982      10.64450034       8.11000000        8 
H      13.25299982      11.56650034      10.17600000        1 
H      13.18099982      11.05250034       7.25500000        1 
H      11.05599982       9.85550034       9.15700000        1 
H      10.63499982       8.42250034       7.14900000        1 
H      12.02299982       9.21050034       6.28900000        1 
H      10.54899982      10.17950034       6.71400000        1 
H      12.31199982       7.60150034       8.63500000        1 
H      13.00499982       8.67050034       9.92500000        1 
H      13.74599982       8.64950034       8.27600000        1 
H      15.54499982      11.26150034      10.08600000        1 
O       8.61699982      12.76850034      10.06700000        8 
H       9.28099982      12.25950034      10.14200000        1 
H       7.93399982      12.27950034      10.06600000        1 
N       6.97299982      -2.70000000      16.71500046        7 
C       7.93899982      -2.90100000      17.76500046        6 
C       8.94499982      -1.75000000      17.76400046        6 
O       9.67799982      -1.47100000      16.81100046        8 
C       8.71699982      -4.23600000      17.63100046        6 
C       9.35399982      -4.58900000      18.95900046        6 
C       7.80399982      -5.35700000      17.18500046        6 
C       5.61999982      -2.91700000      16.85900046        6 
O       5.08899982      -3.30800000      17.91000046        8 
H       7.33099982      -2.38600000      15.84400046        1 
H       7.40299982      -2.90000000      18.76500046        1 
H       9.52799982      -4.09700000      16.86300046        1 
H       9.94899982      -5.53000000      18.87100046        1 
H       8.56099982      -4.74200000      19.73100046        1 
H      10.03499982      -3.77300000      19.30600046        1 
H       8.27199982      -6.35100000      17.38500046        1 
H       7.57899982      -5.28200000      16.09500046        1 
H       6.83799982      -5.30300000      17.74400046        1 
H       5.03899982      -2.69100000      15.93400046        1 
N       8.97299982      -1.05300000      18.89500046        7 
C       9.86199982       0.07900000      19.07500046        6 
C       9.45099982       0.95200000      20.24400046        6 
O       9.43499982       0.50000000      21.38800046        8 
H       8.47899982      -1.22000000      19.57900046        1 
H      10.76499982      -0.24000000      19.23300046        1 
H       9.86399982       0.62100000      18.27100046        1 
O      11.96699982      -1.18400000      15.95300046        8 
H      11.30299982      -1.69300000      15.87800046        1 
H      12.64999982      -1.67300000      15.95400046        1 
N      14.02099982      -9.98550034       4.18500000        7 
C      15.42199982      -9.58550034       4.24500000        6 
C      16.21999982     -10.30450034       3.16400000        6 
O      15.64999982     -10.93350034       2.27400000        8 
C      15.54899982      -8.07050034       4.07600000        6 
C      14.89599982      -7.23450034       5.17900000        6 
C      15.62399982      -7.42950034       6.50100000        6 
C      14.85999982      -5.76350034       4.79700000        6 
H      13.67199982      -9.91350034       3.40300000        1 
H      15.79299982      -9.82950034       5.10700000        1 
H      15.13499982      -7.81950034       3.23600000        1 
H      16.49099982      -7.84150034       4.05500000        1 
H      13.98099982      -7.53250034       5.29800000        1 
H      15.29399982      -6.78050034       7.14200000        1 
H      16.57499982      -7.29950034       6.35900000        1 
H      15.45799982      -8.32950034       6.82300000        1 
H      14.32999982      -5.28050034       5.45000000        1 
H      14.46099982      -5.67550034       3.91700000        1 
H      15.76699982      -5.41850034       4.78600000        1 
C      -1.88900000      -7.31450034      10.04100046        6 
O      -2.00800000      -8.00350034      11.07700046        8 
C      -1.26900000      -5.95550034      10.16700046        6 
O      -2.25100000      -7.69250034       8.90600046        8 
H      -0.89700000      -5.81950034      11.18300046        1 
H      -0.44300000      -5.86350034       9.46200046        1 
H      -2.01800000      -5.19350034       9.95200046        1 
N      14.41499963     -10.05350034       9.19300046        7 
C      13.32599963      -9.93250034      10.12700046        6 
C      12.46099963     -11.19150034      10.06800046        6 
O      12.15199963     -11.76750034       9.02000046        8 
C      15.71799963      -9.70150034       9.47200046        6 
O      16.09399963      -9.23950034      10.56100046        8 
H      14.18599963     -10.41750034       8.29800046        1 
H      16.41399963      -9.88550034       8.62000046        1 
C      12.43099963      -8.69250034       9.85800046        6 
C      11.55899963      -8.93750034       8.64400046        6 
C      11.56499963      -8.36350034      11.05500046        6 
H      13.74799963      -9.84450034      11.17600046        1 
H      13.10399963      -7.81550034       9.64700046        1 
H      11.22899963      -7.96850034       8.19700046        1 
H      10.65099963      -9.51950034       8.93500046        1 
H      12.11699963      -9.51050034       7.86300046        1 
H      10.85899963      -7.53250034      10.81200046        1 
H      12.18699963      -8.05550034      11.92900046        1 
H      10.96699963      -9.25950034      11.35100046        1 
N      11.64299963     -11.21350034      15.81800046        7 
C      13.31799963      -9.86250034      14.64800046        6 
O      12.95799963     -10.17350034      13.51300046        8 
H      11.42599963     -11.48950034      15.03400046        1 
C      12.34199963      -9.93250034      15.81700046        6 
C      11.33399963      -8.78450034      15.72400046        6 
C      11.90799963      -7.37450034      15.56400046        6 
C      10.78799963      -6.34950034      15.48500046        6 
C      12.85699963      -7.04350034      16.70300046        6 
H      12.84299963      -9.83650034      16.64200046        1 
H      10.79799963      -8.78550034      16.53300046        1 
H      10.75899963      -8.94750034      14.96000046        1 
H      12.40899963      -7.32850034      14.73500046        1 
H      11.17399963      -5.47150034      15.34000046        1 
H      10.29299963      -6.36050034      16.31900046        1 
H      10.20099963      -6.58050034      14.74800046        1 
H      13.13999963      -6.11950034      16.61800046        1 
H      13.62699963      -7.63150034      16.65200046        1 
H      12.39599963      -7.17250034      17.54600046        1 
N      14.54999963      -9.45050034      14.92900046        7 
C      15.57499963      -9.34250034      13.89900046        6 
C      16.10999963     -10.72150034      13.52800046        6 
O      15.70999963     -11.72950034      14.11200046        8 
C      16.71999963      -8.44350034      14.37200046        6 
C      16.32199963      -7.01150034      14.55600046        6 
C      15.99299963      -6.39650034      15.72900046        6 
C      16.20899963      -6.01350034      13.53500046        6 
N      15.68299963      -5.07750034      15.50100046        7 
C      15.80799963      -4.81750034      14.16200046        6 
C      16.40799963      -6.01550034      12.15100046        6 
C      15.60199963      -3.63550034      13.45400046        6 
C      16.20399963      -4.84050034      11.45000046        6 
C      15.80499963      -3.66750034      12.10200046        6 
H      14.81799963      -9.22650034      15.71500046        1 
H      15.18799963      -8.94450034      13.10400046        1 
H      17.04499963      -8.77350034      15.22400046        1 
H      17.43299963      -8.47050034      13.71500046        1 
H      15.97999963      -6.81050034      16.56200046        1 
H      15.44799963      -4.50850034      16.10200046        1 
H      16.67299963      -6.79050034      11.71100046        1 
H      15.33799963      -2.85450034      13.88400046        1 
H      16.33399963      -4.83050034      10.52900046        1 
H      15.67599963      -2.89250034      11.60400046        1 
O       8.09899963     -10.73250034       8.50000046        8 
H       7.28099963     -10.79250034       8.31900046        1 
H       8.23699963      -9.94150034       8.74400046        1 
N      21.75699963       1.90000000       2.37900000        7 
C      21.10899963       1.17700000       3.46700000        6 
C      21.53599963      -0.28800000       3.47000000        6 
O      21.33099963      -1.00400000       2.49000000        8 
C      19.58799963       1.28700000       3.33900000        6 
C      18.83399963       0.67100000       4.47700000        6 
C      18.82499963       1.08800000       5.77600000        6 
C      17.97399963      -0.47400000       4.41700000        6 
N      18.01399963       0.27400000       6.52900000        7 
C      17.47999963      -0.69300000       5.71800000        6 
C      17.57599963      -1.33500000       3.39000000        6 
C      16.60799963      -1.73700000       6.01900000        6 
C      16.70999963      -2.37000000       3.69100000        6 
C      16.23599963      -2.56200000       4.99400000        6 
H      21.32099963       1.87700000       1.63800000        1 
H      21.37099963       1.57100000       4.31300000        1 
H      19.34499963       2.22500000       3.29700000        1 
H      19.30999963       0.84000000       2.52400000        1 
H      19.29899963       1.81800000       6.10400000        1 
H      17.86599963       0.35800000       7.37200000        1 
H      17.88699963      -1.21400000       2.52200000        1 
H      16.29099963      -1.86700000       6.88400000        1 
H      16.43799963      -2.94900000       3.01600000        1 
H      15.65399963      -3.26700000       5.16700000        1 
O      16.55199963      -0.04100000       9.06100000        8 
H      17.19299963       0.43300000       9.32400000        1 
H      15.87099963       0.45100000       9.05800000        1 
N      11.46799963      12.87750034      12.31700046        7 
C      11.84599963      11.88450034      13.31600046        6 
C      13.29699963      11.45550034      13.12400046        6 
O      14.01399963      12.01250034      12.29200046        8 
C      10.91999963      10.67950034      13.24100046        6 
H      11.11599963      12.54150034      11.60700046        1 
H      11.76099963      12.27450034      14.20000046        1 
H      11.16599963      10.04650034      13.93300046        1 
H      10.00599963      10.97650034      13.37400046        1 
H      11.00899963      10.26750034      12.36700046        1 
N      13.72499963      10.46350034      13.89900046        7 
C      15.08999963       9.95950034      13.81800046        6 
C      15.99199963      10.69250034      14.80500046        6 
O      15.51199963      11.37150034      15.71300046        8 
C      15.11999963       8.45650034      14.10500046        6 
C      14.32099963       7.57450034      13.14300046        6 
C      14.89999963       7.64250034      11.73700046        6 
C      14.28499963       6.13750034      13.64000046        6 
H      13.23899963      10.06250034      14.48400046        1 
H      15.43599963      10.10750034      12.92400046        1 
H      14.76499963       8.30850034      14.99500046        1 
H      16.04199963       8.15850034      14.07300046        1 
H      13.40799963       7.89850034      13.10500046        1 
H      14.42099963       7.01950034      11.16900046        1 
H      15.83999963       7.40350034      11.77200046        1 
H      14.79999963       8.54550034      11.39800046        1 
H      13.77799963       5.59850034      13.01200046        1 
H      13.85999963       6.11650034      14.51200046        1 
H      15.19299963       5.80250034      13.70600046        1 
H       5.80773863       4.71010373      16.97397266        1 
H       6.90750122      -3.23863410      12.34286391        1 
H       3.80337428      -3.95712347      10.91709469        1 
H       1.77853636      -0.66271607      10.11707322        1 
H       1.75862490       2.58465855       8.64818824        1 
H       4.88766944       3.68267605       6.29900262        1 
H       7.86424474       3.81990001       4.30786409        1 
H       8.86155735       0.14558430       3.11749836        1 
H      14.03443454      10.47699387       9.47615121        1 
H      11.54476254      12.78489888       7.44857738        1 
H       6.54956509      -3.47550648      16.54384924        1 
H       9.18961688       1.90470198      20.08895889        1 
H       2.92262408      -3.20219942       6.25828379        1 
H       6.62262451      -2.59600746       7.22290886        1 
H       9.44215033      -1.01742934       8.65073605        1 
H       8.97417736       2.62481371       9.88468293        1 
H       6.72581140       5.03911721      11.29812820        1 
H      14.77626100      -9.24239661       9.04602780        1 
H      12.10938454     -11.59656388      10.91197342        1 
H      13.85818823      -8.91338313      14.72187226        1 
H      16.79304745     -10.81453046      12.80357581        1 
H      10.86489449      13.44450774      12.67022389        1 
H      13.67649841      10.71386624      13.67713655        1 
H      21.84976102       2.76571606       2.60688381        1 
H      21.98741383      -0.67558799       4.27374173        1 
