 225 
 
N                -3.0560000000       14.4780000000       18.0760000000
C                -3.2260000000       14.0050000000       16.7100000000
C                -4.3210000000       14.8540000000       16.0860000000
O                -5.4940000000       14.7160000000       16.4380000000
C                -3.6180000000       12.5310000000       16.6980000000
C                -2.4560000000       11.6000000000       16.9130000000
C                -1.9950000000       11.3090000000       18.1940000000
C                -1.7990000000       11.0400000000       15.8210000000
C                -0.9150000000       10.4560000000       18.3610000000
C                -0.7320000000       10.1950000000       15.9970000000
C                -0.2870000000        9.9250000000       17.2570000000
H                -3.6530000000       14.0050000000       18.7550000000
H                -2.2980000000       14.1150000000       16.1480000000
H                -4.3410000000       12.3530000000       17.4940000000
H                -4.0620000000       12.2930000000       15.7310000000
H                -2.4770000000       11.7470000000       19.0550000000
H                -2.1340000000       11.2740000000       14.8210000000
H                -0.5680000000       10.2090000000       19.3530000000
H                -0.2480000000        9.7470000000       15.1420000000
H                 0.5720000000        9.2840000000       17.3910000000
N                -3.9450000000       15.7200000000       15.1590000000
C                -4.8850000000       16.6950000000       14.6400000000
C                -5.6890000000       16.2250000000       13.4370000000
O                -6.6970000000       16.8640000000       13.1150000000
C                -4.1750000000       18.0090000000       14.3160000000
C                -3.1930000000       17.8880000000       13.2050000000
N                -1.9100000000       17.4270000000       13.4020000000
C                -3.3220000000       18.1000000000       11.8730000000
C                -1.2770000000       17.4020000000       12.2410000000
N                -2.1100000000       17.8140000000       11.3040000000
H                -3.0100000000       15.7700000000       14.7540000000
H                -5.6110000000       16.9000000000       15.4270000000
H                -4.9200000000       18.7500000000       14.0260000000
H                -3.6380000000       18.3480000000       15.2020000000
H                -1.5120000000       17.1490000000       14.2990000000
H                -4.2120000000       18.4320000000       11.3580000000
H                -0.2530000000       17.0960000000       12.0860000000
N                -5.2640000000       15.1620000000       12.7550000000
C                -5.9180000000       14.6930000000       11.5370000000
C                -5.9370000000       13.1750000000       11.5880000000
O                -4.8830000000       12.5470000000       11.6910000000
C                -5.1220000000       15.1930000000       10.3300000000
C                -5.7490000000       14.9100000000        8.9590000000
C                -4.9820000000       15.7020000000        7.8880000000
N                -5.4610000000       15.4830000000        6.5260000000
C                -4.8720000000       14.6810000000        5.6440000000
N                -3.7840000000       13.9950000000        5.9760000000
N                -5.3760000000       14.5560000000        4.4280000000
H                -4.4580000000       14.5980000000       13.0260000000
H                -6.9470000000       15.0440000000       11.4620000000
H                -5.0100000000       16.2740000000       10.4180000000
H                -4.1430000000       14.7140000000       10.3430000000
H                -5.6800000000       13.8460000000        8.7310000000
H                -6.7920000000       15.2260000000        8.9550000000
H                -5.0780000000       16.7660000000        8.1050000000
H                -3.9330000000       15.4080000000        7.9200000000
H                -6.3030000000       15.9780000000        6.2320000000
H                -3.3930000000       14.0810000000        6.9140000000
H                -3.3390000000       13.3820000000        5.2930000000
H                -6.2150000000       15.0740000000        4.1680000000
H                -4.9260000000       13.9410000000        3.7500000000
N                -7.1220000000       12.5860000000       11.5780000000
C                -7.2760000000       11.1330000000       11.5730000000
C                -8.3130000000       10.7850000000       10.5230000000
O                -9.4770000000       11.2070000000       10.6340000000
C                -7.6960000000       10.5810000000       12.9450000000
C                -6.6070000000       10.8970000000       13.9720000000
C                -7.9290000000        9.0920000000       12.8530000000
C                -6.8860000000       10.3530000000       15.3420000000
H                -6.3270000000       10.6730000000       11.2990000000
H                -8.6260000000       11.0550000000       13.2590000000
H                -5.6670000000       10.4650000000       13.6290000000
H                -6.5110000000       11.9790000000       14.0580000000
H                -8.2260000000        8.7180000000       13.8330000000
H                -8.7190000000        8.9010000000       12.1270000000
H                -7.0060000000        8.6070000000       12.5340000000
H                -6.0640000000       10.6230000000       16.0050000000
H                -7.8180000000       10.7820000000       15.7110000000
H                -6.9740000000        9.2680000000       15.2820000000
H                -8.0080000000       13.0920000000       11.5730000000
N                -4.8060000000        7.1780000000        7.5770000000
C                -3.6890000000        7.4570000000        8.4710000000
C                -4.1200000000        8.2700000000        9.6720000000
O                -5.1710000000        8.9050000000        9.6780000000
C                -2.5950000000        8.2210000000        7.7370000000
C                -3.1670000000        9.4450000000        7.0500000000
S                -2.0680000000       10.8350000000        7.1320000000
C                -1.0490000000       10.5110000000        5.7130000000
H                -5.6360000000        7.7560000000        7.7060000000
H                -3.3230000000        6.4950000000        8.8300000000
H                -1.8370000000        8.5450000000        8.4500000000
H                -2.1450000000        7.5770000000        6.9810000000
H                -3.3460000000        9.2150000000        6.0000000000
H                -4.1030000000        9.7230000000        7.5350000000
H                -0.3020000000       11.3000000000        5.6250000000
H                -0.5570000000        9.5470000000        5.8420000000
H                -1.6770000000       10.4920000000        4.8220000000
N                -3.2580000000        8.2330000000       10.6900000000
C                -3.3290000000        9.1510000000       11.8100000000
C                -2.1240000000       10.0660000000       11.7430000000
O                -0.9890000000        9.5820000000       11.6840000000
C                -3.2680000000        8.4070000000       13.1410000000
S                -4.5810000000        7.1690000000       13.3550000000
H                -2.4910000000        7.5640000000       10.7590000000
H                -4.2580000000        9.7170000000       11.7530000000
H                -2.3110000000        7.8910000000       13.2090000000
H                -3.3590000000        9.1310000000       13.9510000000
H                -4.4390000000        6.5970000000       14.5140000000
N                -2.3550000000       11.3630000000       11.8110000000
C                -1.2740000000       12.3310000000       11.7050000000
C                -1.1600000000       13.1850000000       12.9620000000
O                -2.1530000000       13.7230000000       13.4580000000
C                -1.4390000000       13.2280000000       10.4740000000
C                -0.3850000000       14.2950000000       10.3670000000
C                -0.3480000000       14.9620000000        9.0090000000
O                -0.9420000000       14.4830000000        8.0440000000
N                 0.3590000000       16.0760000000        8.9280000000
H                -3.2790000000       11.7770000000       11.9390000000
H                -0.3380000000       11.7800000000       11.6090000000
H                -1.3810000000       12.6100000000        9.5780000000
H                -2.4100000000       13.7210000000       10.5250000000
H                -0.5840000000       15.0650000000       11.1130000000
H                 0.5920000000       13.8460000000       10.5460000000
H                 0.8390000000       16.4370000000        9.7530000000
H                 0.4250000000       16.5750000000        8.0410000000
N                 0.0700000000       13.3680000000       13.4190000000
C                 0.3420000000       14.2040000000       14.5720000000
C                 1.6990000000       14.8570000000       14.4990000000
O                 2.2960000000       14.9660000000       13.4180000000
H                -0.4140000000       14.9870000000       14.6360000000
H                 0.3010000000       13.5960000000       15.4760000000
H                 0.9040000000       12.9470000000       13.0080000000
N                -1.4380000000       21.2240000000       12.2450000000
C                -0.8290000000       20.8640000000       10.9860000000
C                 0.0190000000       21.9460000000       10.3570000000
O                 0.6800000000       21.6790000000        9.3480000000
H                -0.8050000000       21.1740000000       13.0430000000
H                -0.1930000000       19.9930000000       11.1420000000
H                -1.6170000000       20.6060000000       10.2780000000
N                 5.5420000000       13.4650000000        7.5540000000
C                 4.7640000000       14.4380000000        6.8040000000
C                 5.7060000000       15.5010000000        6.2680000000
O                 6.7850000000       15.7170000000        6.8080000000
C                 3.7160000000       15.0840000000        7.7160000000
H                 5.4320000000       13.5350000000        8.5660000000
H                 4.2390000000       13.9630000000        5.9750000000
H                 3.1430000000       15.8100000000        7.1390000000
H                 3.0540000000       14.3080000000        8.1010000000
H                 4.2230000000       15.5830000000        8.5420000000
N                 6.2170000000       16.6530000000       12.1650000000
C                 4.9550000000       15.9860000000       11.8990000000
C                 5.1810000000       14.6450000000       11.2160000000
O                 6.0950000000       14.4770000000       10.4070000000
C                 4.0380000000       16.8590000000       11.0490000000
C                 3.5110000000       18.0610000000       11.7880000000
C                 2.5210000000       18.8060000000       10.9550000000
O                 1.5450000000       18.2340000000       10.4650000000
N                 2.8000000000       20.0760000000       10.7230000000
H                 6.4430000000       17.4040000000       11.5130000000
H                 4.4500000000       15.8020000000       12.8470000000
H                 4.5940000000       17.2150000000       10.1820000000
H                 3.1840000000       16.2630000000       10.7250000000
H                 3.0180000000       17.7370000000       12.7040000000
H                 4.3370000000       18.7320000000       12.0260000000
H                 3.6500000000       20.4900000000       11.1060000000
H                 2.1650000000       20.6430000000       10.1610000000
N                 4.3430000000       13.6850000000       11.5890000000
C                 4.4810000000       12.3060000000       11.1510000000
C                 3.0810000000       11.7510000000       10.9780000000
O                 2.0940000000       12.3330000000       11.4440000000
C                 5.2160000000       11.4630000000       12.2160000000
C                 4.4860000000       11.4210000000       13.5350000000
C                 3.4910000000       10.4820000000       13.7780000000
C                 4.7300000000       12.3710000000       14.4960000000
C                 2.7800000000       10.4900000000       14.9610000000
C                 4.0430000000       12.3590000000       15.6860000000
C                 3.0530000000       11.4440000000       15.9060000000
H                 3.5450000000       13.8370000000       12.2060000000
H                 5.0320000000       12.2620000000       10.2110000000
H                 5.3140000000       10.4400000000       11.8520000000
H                 6.2020000000       11.8930000000       12.3900000000
H                 3.2710000000        9.7350000000       13.0300000000
H                 5.4700000000       13.1360000000       14.3150000000
H                 2.0140000000        9.7500000000       15.1410000000
H                 4.2880000000       13.0790000000       16.4530000000
H                 2.4860000000       11.4720000000       16.8240000000
N                 3.0020000000       10.5830000000       10.3560000000
C                 1.7460000000        9.8630000000       10.3150000000
C                 1.9830000000        8.3750000000       10.4910000000
O                 3.0130000000        7.8250000000       10.0750000000
C                 0.9210000000       10.1640000000        9.0550000000
C                 1.6550000000        9.9280000000        7.7480000000
C                 2.4460000000       10.9080000000        7.1810000000
C                 1.5020000000        8.7320000000        7.0610000000
C                 3.0820000000       10.6930000000        5.9850000000
C                 2.1370000000        8.5180000000        5.8460000000
C                 2.9370000000        9.5000000000        5.3250000000
H                 3.7780000000       10.1220000000        9.8810000000
H                 1.1380000000       10.1820000000       11.1610000000
H                 0.0390000000        9.5240000000        9.0570000000
H                 0.6210000000       11.2120000000        9.0790000000
H                 2.5650000000       11.8550000000        7.6860000000
H                 0.8790000000        7.9550000000        7.4790000000
H                 3.7010000000       11.4690000000        5.5600000000
H                 2.0020000000        7.5860000000        5.3160000000
H                 3.4550000000        9.3340000000        4.3920000000
O                -2.3600000000       18.5220000000        8.5080000000
H                -1.7020000000       18.9490000000        8.8090000000
H                -3.0410000000       18.9900000000        8.6570000000
O                 0.0760000000       19.3070000000        7.5250000000
H                 0.7960000000       19.7240000000        7.4060000000
H                -0.5430000000       19.8140000000        7.2690000000
O                 0.6720000000       17.1430000000        5.9400000000
H                 1.3460000000       17.6440000000        5.9400000000
H                -0.0030000000       17.6430000000        5.9400000000
H                -2.2039375963       14.3480894935       18.3350616154
H                -8.0607522755       10.2156590936        9.7405538244
H                -4.5460978441        7.3007186848        6.7241277975
H                 2.1296510114       15.2093968963       15.3298767260
H                -1.7417077715       22.0700531114       12.2007764527
H                 0.0391290293       22.8618929380       10.7579176329
H                 5.2917088248       12.6335110859        7.3173979855
H                 5.4495576555       16.0366201740        5.4634203873
H                 6.1965556254       17.0176396878       12.9875691008
H                 1.2986096450        7.8108875114       10.9529382450
