 469 
 
N                 4.2720000000        5.9170000000       23.0150000000
C                 3.3050000000        6.9800000000       23.2560000000
C                 2.1950000000        6.3870000000       24.1240000000
O                 1.6570000000        5.3180000000       23.7990000000
C                 2.5970000000        7.4390000000       21.9720000000
C                 3.4200000000        8.2460000000       20.9920000000
C                 4.7060000000        8.6740000000       21.2380000000
C                 2.8490000000        8.5730000000       19.7820000000
C                 5.4030000000        9.4100000000       20.2720000000
C                 3.5460000000        9.3120000000       18.8330000000
C                 4.8120000000        9.7240000000       19.0990000000
H                 4.3397139032        5.7674121258       22.1301054892
H                 3.8270000000        7.8180000000       23.7170000000
H                 2.2510000000        6.5520000000       21.4420000000
H                 1.7460000000        8.0580000000       22.2580000000
H                 5.1790000000        8.4410000000       22.1810000000
H                 1.8410000000        8.2490000000       19.5670000000
H                 6.4170000000        9.7280000000       20.4660000000
H                 3.0830000000        9.5570000000       17.8890000000
H                 5.3510000000       10.3070000000       18.3670000000
H                 3.8820000000        5.1250000000       22.5050000000
N                 1.8250000000        7.0850000000       25.1990000000
C                 0.6130000000        6.7840000000       25.9600000000
C                -0.4630000000        7.7410000000       25.4570000000
O                -0.2880000000        8.9580000000       25.5200000000
C                 0.8520000000        6.9770000000       27.4590000000
C                 1.6120000000        5.8290000000       28.0780000000
O                 1.6370000000        4.7470000000       27.4950000000
O                 2.1500000000        5.9970000000       29.1760000000
H                 2.3520000000        7.8750000000       25.5710000000
H                 0.2970000000        5.7520000000       25.8080000000
H                 1.4310000000        7.8870000000       27.6130000000
H                -0.1100000000        7.0570000000       27.9650000000
N                -1.5440000000        7.2010000000       24.9370000000
C                -2.5860000000        7.9610000000       24.2510000000
C                -3.7580000000        8.1870000000       25.1950000000
O                -4.1780000000        7.2820000000       25.9340000000
C                -3.0580000000        7.2140000000       22.9840000000
C                -1.8930000000        6.9090000000       22.0450000000
C                -4.1540000000        7.9730000000       22.2510000000
C                -1.2350000000        8.1080000000       21.4540000000
H                -1.7420000000        6.2010000000       24.9710000000
H                -2.1820000000        8.9330000000       23.9690000000
H                -3.4780000000        6.2670000000       23.3220000000
H                -1.1340000000        6.3600000000       22.6030000000
H                -2.2640000000        6.2990000000       21.2210000000
H                -4.4500000000        7.4050000000       21.3690000000
H                -5.0080000000        8.0960000000       22.9180000000
H                -3.7710000000        8.9490000000       21.9530000000
H                -0.4220000000        7.7830000000       20.8040000000
H                -1.9710000000        8.6680000000       20.8770000000
H                -0.8420000000        8.7300000000       22.2580000000
N                -4.3150000000        9.3850000000       25.1440000000
C                -5.5080000000        9.7290000000       25.9080000000
C                -6.5630000000       10.3040000000       24.9690000000
O                -6.2440000000       10.9060000000       23.9300000000
C                -5.2200000000       10.7430000000       27.0110000000
H                -3.9600000000       10.1530000000       24.5740000000
H                -5.8980000000        8.8240000000       26.3740000000
H                -6.1460000000       10.9600000000       27.5440000000
H                -4.4850000000       10.3220000000       27.6970000000
H                -4.8280000000       11.6550000000       26.5610000000
N                -7.8260000000       10.1220000000       25.3530000000
C                -8.9770000000       10.5750000000       24.5750000000
C                -9.7980000000       11.4610000000       25.5030000000
O               -10.3570000000       10.9700000000       26.4850000000
C                -9.8090000000        9.3850000000       24.0820000000
C               -11.0340000000        9.8480000000       23.3310000000
C                -8.9680000000        8.4560000000       23.2380000000
H                -8.0880000000        9.6520000000       26.2200000000
H                -8.6540000000       11.1620000000       23.7150000000
H               -10.1550000000        8.8240000000       24.9500000000
H               -11.5970000000        8.9760000000       22.9980000000
H               -11.6480000000       10.4560000000       23.9950000000
H               -10.7200000000       10.4380000000       22.4700000000
H                -9.5860000000        7.6230000000       22.9040000000
H                -8.5880000000        9.0060000000       22.3770000000
H                -8.1380000000        8.0850000000       23.8390000000
N                -9.8510000000       12.7580000000       25.2140000000
C               -10.4640000000       13.7300000000       26.1130000000
C                -9.9440000000       13.5420000000       27.5370000000
O               -10.6930000000       13.6290000000       28.5140000000
C               -11.9890000000       13.6570000000       26.0450000000
C               -12.5600000000       14.4020000000       24.8490000000
O               -11.8040000000       15.1060000000       24.1470000000
O               -13.7860000000       14.3060000000       24.6290000000
H                -9.4760000000       13.1690000000       24.3590000000
H               -10.1820000000       14.7340000000       25.7970000000
H               -12.2920000000       12.6130000000       25.9680000000
H               -12.4070000000       14.1000000000       26.9490000000
N                -8.6320000000       13.3060000000       27.6380000000
C                -7.9210000000       13.2380000000       28.8890000000
C                -7.8240000000       11.8550000000       29.4980000000
O                -6.9710000000       11.6330000000       30.3650000000
H                -8.0260000000       13.1540000000       26.8320000000
H                -6.9060000000       13.6030000000       28.7330000000
H                -8.4230000000       13.8830000000       29.6100000000
N                -8.6480000000       10.9110000000       29.0520000000
C                -8.7310000000        9.6330000000       29.7510000000
C                -7.8780000000        8.5970000000       29.0420000000
O                -7.9180000000        8.5080000000       27.8040000000
C               -10.1820000000        9.1710000000       29.7930000000
C               -11.0620000000       10.0190000000       30.7200000000
C               -10.5220000000       10.0980000000       32.1440000000
O               -10.4840000000        9.0530000000       32.8240000000
O               -10.1340000000       11.2030000000       32.5830000000
H                -9.2530000000       10.9970000000       28.2350000000
H                -8.3690000000        9.7240000000       30.7750000000
H               -10.6000000000        9.2300000000       28.7880000000
H               -10.2140000000        8.1420000000       30.1500000000
H               -11.1180000000       11.0330000000       30.3250000000
H               -12.0590000000        9.5800000000       30.7620000000
N                -7.0920000000        7.8070000000       29.7720000000
C                -6.1310000000        6.9160000000       29.1040000000
C                -6.8000000000        5.8390000000       28.2610000000
O                -7.7110000000        5.1370000000       28.7090000000
C                -5.3240000000        6.3210000000       30.2650000000
C                -5.4540000000        7.3310000000       31.3640000000
C                -6.8390000000        7.9070000000       31.2240000000
H                -5.4790000000        7.5040000000       28.4580000000
H                -5.7470000000        5.3610000000       30.5620000000
H                -4.2820000000        6.1940000000       29.9700000000
H                -5.3340000000        6.8420000000       32.3310000000
H                -4.6980000000        8.1070000000       31.2430000000
H                -7.5640000000        7.3200000000       31.7870000000
H                -6.8640000000        8.9460000000       31.5530000000
N                -6.3190000000        5.7210000000       27.0220000000
C                -6.7280000000        4.7220000000       26.0400000000
C                -5.7780000000        3.5330000000       26.0330000000
O                -6.1970000000        2.3970000000       26.2540000000
C                -6.7820000000        5.3650000000       24.6460000000
C                -7.2030000000        4.4300000000       23.5190000000
C                -8.6020000000        3.9250000000       23.6870000000
C                -7.0470000000        5.1520000000       22.1830000000
H                -7.7290000000        4.3590000000       26.2740000000
H                -7.4980000000        6.1870000000       24.6740000000
H                -5.7890000000        5.7440000000       24.4030000000
H                -6.5590000000        3.5510000000       23.5370000000
H                -8.8430000000        3.2640000000       22.8540000000
H                -8.6710000000        3.3790000000       24.6280000000
H                -9.2860000000        4.7730000000       23.6980000000
H                -7.3490000000        4.4800000000       21.3790000000
H                -7.6800000000        6.0400000000       22.1830000000
H                -6.0030000000        5.4390000000       22.0550000000
H                -5.6010000000        6.3420000000       26.6490000000
N                -4.4920000000        3.7720000000       25.8530000000
C                -3.5240000000        2.7000000000       25.8510000000
C                -2.1950000000        3.2030000000       25.3280000000
O                -2.0190000000        4.3940000000       25.0560000000
H                -4.0910000000        4.6980000000       25.7060000000
H                -3.3860000000        2.3220000000       26.8640000000
H                -3.8710000000        1.8870000000       25.2130000000
N                -1.2620000000        2.2710000000       25.1990000000
C                 0.1020000000        2.5700000000       24.7960000000
C                 0.4030000000        1.9500000000       23.4390000000
O                -0.0670000000        0.8520000000       23.1220000000
C                 1.0910000000        2.0320000000       25.8360000000
C                 2.5500000000        2.1290000000       25.4170000000
C                 3.4850000000        1.7060000000       26.5400000000
N                 3.3590000000        2.5710000000       27.7090000000
C                 4.1120000000        2.4790000000       28.8000000000
N                 5.0470000000        1.5420000000       28.8920000000
N                 3.9200000000        3.3250000000       29.8050000000
H                -1.4260000000        1.2790000000       25.3710000000
H                 0.2270000000        3.6490000000       24.7060000000
H                 0.9730000000        2.6030000000       26.7570000000
H                 0.8680000000        0.9810000000       26.0180000000
H                 2.7240000000        1.4750000000       24.5630000000
H                 2.7810000000        3.1600000000       25.1500000000
H                 3.2450000000        0.6870000000       26.8430000000
H                 4.5150000000        1.7570000000       26.1880000000
H                 2.6430000000        3.2970000000       27.6870000000
H                 5.1910000000        0.8880000000       28.1230000000
H                 5.6220000000        1.4760000000       29.7320000000
H                 3.1970000000        4.0410000000       29.7380000000
H                 4.4950000000        3.2590000000       30.6450000000
N                 1.1880000000        2.6670000000       22.6450000000
C                 1.7180000000        2.1700000000       21.3820000000
C                 3.2250000000        2.3750000000       21.4020000000
O                 3.7130000000        3.3940000000       21.9000000000
C                 1.0810000000        2.8840000000       20.1750000000
C                -0.3540000000        2.4280000000       20.0100000000
C                 1.1420000000        4.3900000000       20.3390000000
H                 1.4820000000        3.6210000000       22.8550000000
H                 1.5090000000        1.1050000000       21.2850000000
H                 1.6410000000        2.6270000000       19.2760000000
H                -0.7930000000        2.9400000000       19.1540000000
H                -0.3670000000        1.3510000000       19.8460000000
H                -0.9100000000        2.6730000000       20.9150000000
H                 0.6840000000        4.8610000000       19.4690000000
H                 0.6000000000        4.6710000000       21.2420000000
H                 2.1850000000        4.6960000000       20.4210000000
N                -3.0560000000       14.4780000000       18.0760000000
C                -3.2260000000       14.0050000000       16.7100000000
C                -4.3210000000       14.8540000000       16.0860000000
O                -5.4940000000       14.7160000000       16.4380000000
C                -3.6180000000       12.5310000000       16.6980000000
C                -2.4560000000       11.6000000000       16.9130000000
C                -1.9950000000       11.3090000000       18.1940000000
C                -1.7990000000       11.0400000000       15.8210000000
C                -0.9150000000       10.4560000000       18.3610000000
C                -0.7320000000       10.1950000000       15.9970000000
C                -0.2870000000        9.9250000000       17.2570000000
H                -3.6530000000       14.0050000000       18.7550000000
H                -2.2980000000       14.1150000000       16.1480000000
H                -4.3410000000       12.3530000000       17.4940000000
H                -4.0620000000       12.2930000000       15.7310000000
H                -2.4770000000       11.7470000000       19.0550000000
H                -2.1340000000       11.2740000000       14.8210000000
H                -0.5680000000       10.2090000000       19.3530000000
H                -0.2480000000        9.7470000000       15.1420000000
H                 0.5720000000        9.2840000000       17.3910000000
N                -4.4020000000       -0.2150000000       19.6350000000
C                -4.6600000000        1.1250000000       20.1430000000
C                -4.7380000000        2.1150000000       18.9910000000
O                -5.5590000000        3.0410000000       19.0040000000
C                -3.5850000000        1.5030000000       21.1760000000
C                -3.5760000000        0.5170000000       22.3700000000
C                -3.7700000000        2.9380000000       21.6970000000
C                -4.9160000000        0.4020000000       23.0800000000
H                -3.4550000000       -0.5520000000       19.8070000000
H                -5.6250000000        1.1430000000       20.6500000000
H                -2.6280000000        1.4410000000       20.6570000000
H                -3.3070000000       -0.4740000000       22.0040000000
H                -2.8410000000        0.8570000000       23.1000000000
H                -2.9870000000        3.1560000000       22.4230000000
H                -3.7030000000        3.6310000000       20.8590000000
H                -4.7490000000        3.0200000000       22.1700000000
H                -4.8220000000       -0.3080000000       23.9020000000
H                -5.1990000000        1.3820000000       23.4660000000
H                -5.6650000000        0.0520000000       22.3700000000
N                -8.1170000000        1.7200000000       17.6160000000
C                -9.1010000000        2.3960000000       18.4520000000
C                -9.0910000000        3.8980000000       18.2220000000
O               -10.1520000000        4.5240000000       18.1870000000
C                -8.8400000000        2.0730000000       19.9210000000
H                -7.3490000000        1.2880000000       18.1290000000
H               -10.0940000000        2.0290000000       18.1930000000
H                -9.5820000000        2.5840000000       20.5340000000
H                -8.9160000000        0.9950000000       20.0660000000
H                -7.8400000000        2.4140000000       20.1870000000
N                -7.9080000000        4.4850000000       18.0200000000
C                -7.8350000000        5.9170000000       17.7490000000
C                -8.5480000000        6.2520000000       16.4560000000
O                -9.1640000000        7.3180000000       16.3210000000
C                -6.3730000000        6.3500000000       17.5680000000
C                -5.5650000000        6.3080000000       18.8020000000
S                -3.8100000000        6.4230000000       18.4340000000
C                -3.7850000000        7.9310000000       17.5520000000
H                -7.0070000000        4.0070000000       18.0370000000
H                -8.2780000000        6.4340000000       18.6000000000
H                -5.9020000000        5.6860000000       16.8430000000
H                -6.3580000000        7.3760000000       17.1990000000
H                -5.8380000000        7.1470000000       19.4420000000
H                -5.7470000000        5.3670000000       19.3220000000
H                -2.7610000000        8.1480000000       17.2500000000
H                -4.4210000000        7.8380000000       16.6710000000
H                -4.1590000000        8.7260000000       18.1980000000
N               -12.1150000000        7.6400000000       16.1610000000
C               -12.4320000000        9.0240000000       16.4770000000
C               -12.1480000000        9.9690000000       15.3260000000
O               -12.2830000000       11.1880000000       15.4920000000
C               -11.6770000000        9.4550000000       17.7370000000
C               -12.0530000000        8.6480000000       18.9410000000
C               -13.2530000000        8.8620000000       19.5960000000
C               -11.2260000000        7.6540000000       19.3980000000
C               -13.6010000000        8.0930000000       20.6990000000
C               -11.5720000000        6.8870000000       20.5020000000
C               -12.7490000000        7.1070000000       21.1370000000
H               -11.1430000000        7.3880000000       16.3390000000
H               -13.4960000000        9.1080000000       16.6980000000
H               -10.6070000000        9.3320000000       17.5690000000
H               -11.9040000000       10.5000000000       17.9470000000
H               -13.9240000000        9.6330000000       19.2470000000
H               -10.2910000000        7.4650000000       18.8910000000
H               -14.5360000000        8.2690000000       21.2100000000
H               -10.9040000000        6.1150000000       20.8550000000
H               -13.0190000000        6.5040000000       21.9920000000
N               -13.1440000000       13.6270000000       19.2780000000
C               -12.6330000000       13.8380000000       20.6190000000
C               -11.1690000000       14.2150000000       20.4620000000
O               -10.5620000000       13.9890000000       19.4160000000
C               -12.7970000000       12.5680000000       21.4590000000
C               -14.2680000000       12.2470000000       21.7780000000
C               -14.3840000000       11.4220000000       23.0450000000
C               -15.7880000000       11.4840000000       23.6470000000
N               -15.7480000000       11.9530000000       25.0850000000
H               -12.4840000000       13.1140000000       18.6930000000
H               -13.1520000000       14.6410000000       21.1410000000
H               -12.3790000000       11.7240000000       20.9100000000
H               -12.2680000000       12.6970000000       22.4030000000
H               -14.8200000000       13.1760000000       21.9200000000
H               -14.7020000000       11.6780000000       20.9560000000
H               -14.1580000000       10.3800000000       22.8160000000
H               -13.6800000000       11.8020000000       23.7860000000
H               -16.3970000000       12.1830000000       23.0740000000
H               -16.2370000000       10.4910000000       23.6210000000
H               -16.7120000000       11.9880000000       25.4750000000
H               -15.1770000000       11.2990000000       25.6570000000
H               -15.3280000000       12.9030000000       25.1380000000
N               -10.6040000000       14.8090000000       21.5010000000
C                -9.2220000000       15.2560000000       21.4710000000
C                -8.3200000000       14.0770000000       21.8010000000
O                -8.4340000000       13.4800000000       22.8710000000
C                -9.0330000000       16.3610000000       22.5090000000
C                -7.7440000000       17.1250000000       22.3460000000
C                -7.8120000000       17.9830000000       21.1000000000
C                -6.8110000000       19.1060000000       21.1450000000
N                -6.9630000000       19.9890000000       19.9510000000
H               -11.0800000000       14.9960000000       22.3840000000
H                -8.9650000000       15.6380000000       20.4830000000
H                -9.8550000000       17.0710000000       22.4200000000
H                -9.0320000000       15.9130000000       23.5030000000
H                -7.5870000000       17.7720000000       23.2090000000
H                -6.9120000000       16.4280000000       22.2470000000
H                -7.5970000000       17.3680000000       20.2260000000
H                -8.8090000000       18.4160000000       21.0150000000
H                -6.9730000000       19.7040000000       22.0420000000
H                -5.8010000000       18.6950000000       21.1470000000
H                -6.2680000000       20.7620000000       19.9890000000
H                -6.8100000000       19.4400000000       19.0810000000
H                -7.9200000000       20.3960000000       19.9290000000
N                -7.4030000000       13.7500000000       20.8970000000
C                -6.4620000000       12.6490000000       21.0910000000
C                -5.0900000000       13.2490000000       21.3640000000
O                -4.5840000000       14.0470000000       20.5640000000
C                -6.4490000000       11.6960000000       19.8850000000
C                -7.8500000000       11.1060000000       19.6980000000
C                -5.4150000000       10.6040000000       20.0810000000
C                -8.0330000000       10.3210000000       18.4310000000
H                -7.2850000000       14.2350000000       20.0080000000
H                -6.7490000000       12.0680000000       21.9680000000
H                -6.1760000000       12.2500000000       18.9870000000
H                -8.0590000000       10.4370000000       20.5330000000
H                -8.5720000000       11.9230000000       19.6860000000
H                -5.4270000000        9.9440000000       19.2140000000
H                -4.4310000000       11.0620000000       20.1860000000
H                -5.6610000000       10.0400000000       20.9810000000
H                -9.0550000000        9.9450000000       18.3910000000
H                -7.8430000000       10.9730000000       17.5790000000
H                -7.3300000000        9.4880000000       18.4250000000
N                -4.4900000000       12.8660000000       22.4930000000
C                -3.2570000000       13.4760000000       22.9650000000
C                -2.2320000000       12.4150000000       23.3420000000
O                -2.5770000000       11.3270000000       23.8140000000
C                -3.5290000000       14.3630000000       24.2000000000
O                -4.2650000000       15.5310000000       23.8140000000
C                -2.2320000000       14.7800000000       24.8710000000
H                -4.8420000000       12.1280000000       23.1030000000
H                -2.8310000000       14.0760000000       22.1600000000
H                -4.1140000000       13.7920000000       24.9210000000
H                -4.4370000000       16.0930000000       24.5980000000
H                -2.4450000000       15.4040000000       25.7390000000
H                -1.6800000000       13.8980000000       25.1960000000
H                -1.6150000000       15.3450000000       24.1720000000
N                -0.9610000000       12.7530000000       23.1260000000
C                 0.1620000000       11.9830000000       23.6530000000
C                 0.3660000000       12.3760000000       25.1120000000
O                 1.1320000000       13.2980000000       25.4170000000
C                 1.4430000000       12.2330000000       22.8360000000
C                 1.2490000000       11.7820000000       21.3880000000
C                 2.6290000000       11.5080000000       23.4780000000
C                 2.4540000000       12.0310000000       20.5010000000
H                -0.6740000000       13.5670000000       22.5820000000
H                -0.0690000000       10.9190000000       23.5980000000
H                 1.6510000000       13.3030000000       22.8340000000
H                 1.0460000000       10.7110000000       21.3790000000
H                 0.4050000000       12.3250000000       20.9620000000
H                 3.5240000000       11.6970000000       22.8850000000
H                 2.7680000000       11.8840000000       24.4920000000
H                 2.4200000000       10.4390000000       23.5040000000
H                 2.2310000000       11.6820000000       19.4930000000
H                 2.6680000000       13.1000000000       20.4850000000
H                 3.3090000000       11.4860000000       20.9020000000
N                -0.3120000000       11.6810000000       26.0260000000
C                -0.2540000000       12.0570000000       27.4380000000
C                 1.1390000000       11.8700000000       28.0170000000
O                 1.5480000000       12.6180000000       28.9190000000
C                -1.2800000000       11.2260000000       28.1930000000
H                -0.5010000000       13.1120000000       27.5560000000
H                -1.2480000000       11.4960000000       29.2490000000
H                -2.2710000000       11.4300000000       27.7870000000
H                -1.0390000000       10.1700000000       28.0720000000
H                -0.8980000000       10.8700000000       25.8270000000
O                -6.8690000000       13.8440000000       25.2940000000
H                -6.2050000000       14.3450000000       25.4090000000
H                -7.5480000000       14.3390000000       25.2850000000
O                -8.5340000000        0.9540000000       26.3030000000
H                -7.8600000000        1.4550000000       26.3030000000
H                -9.2090000000        1.4540000000       26.3030000000
O                -7.3610000000       16.3860000000       26.1100000000
H                -6.6870000000       16.8870000000       26.1100000000
H                -8.0360000000       16.8860000000       26.1100000000
O                -3.3910000000       14.5190000000       27.5360000000
H                -2.7650000000       14.9600000000       27.8800000000
H                -4.0680000000       15.0160000000       27.5380000000
O               -13.0670000000        9.8240000000       26.6510000000
H               -12.3930000000       10.3250000000       26.6510000000
H               -13.7410000000       10.3250000000       26.6510000000
O               -12.1970000000        3.2890000000       22.4940000000
H               -11.5230000000        3.7900000000       22.4940000000
H               -12.8720000000        3.7890000000       22.4940000000
O               -13.3580000000       17.2650000000       22.8200000000
H               -12.6840000000       17.7660000000       22.8200000000
H               -14.0330000000       17.7650000000       22.8200000000
O                -2.7410000000        6.2640000000       28.1615000000
H                -3.4970000000        6.5120000000       27.8915000000
H                -2.3210000000        6.9580000000       28.3795000000
O                -2.2230000000        8.0300000000       30.2525000000
H                -2.8570000000        8.5720000000       30.1505000000
H                -1.5140000000        8.4800000000       30.2375000000
O                -3.2430000000        3.7020000000       29.2175000000
H                -4.0650000000        3.5330000000       29.2485000000
H                -3.1700000000        4.5190000000       29.0375000000
O                -5.7350000000        0.5120000000       29.9335000000
H                -6.4090000000        1.0130000000       29.9345000000
H                -5.0600000000        1.0120000000       29.9345000000
N                -3.6420000000       -3.4540000000       26.5275000000
C                -3.6530000000       -2.0010000000       26.3465000000
C                -2.3520000000       -1.3140000000       26.7205000000
O                -2.0220000000       -0.3100000000       26.1015000000
C                -4.8130000000       -1.3030000000       27.0745000000
O                -4.6340000000       -1.4290000000       28.4945000000
C                -6.1600000000       -1.8600000000       26.6255000000
H                -3.6770000000       -3.7740000000       27.4955000000
H                -3.8340000000       -1.8320000000       25.2845000000
H                -4.8230000000       -0.2420000000       26.8265000000
H                -5.3700000000       -0.9860000000       28.9655000000
H                -6.9680000000       -1.3520000000       27.1525000000
H                -6.2870000000       -1.7090000000       25.5535000000
H                -6.2130000000       -2.9270000000       26.8415000000
N                -1.5700000000       -1.8670000000       27.6515000000
C                -0.3240000000       -1.2430000000       28.0765000000
C                 0.8710000000       -2.1660000000       28.0325000000
O                 1.9990000000       -1.6810000000       28.1685000000
C                -0.4690000000       -0.6240000000       29.4745000000
C                -1.5520000000        0.4660000000       29.4795000000
C                -1.6420000000        1.2070000000       30.7805000000
N                -0.4000000000        1.9160000000       31.0585000000
C                 0.0030000000        3.0180000000       30.4195000000
N                -0.7400000000        3.5680000000       29.4515000000
N                 1.1620000000        3.5700000000       30.7405000000
H                -1.7770000000       -2.7460000000       28.1265000000
H                -0.1020000000       -0.4160000000       27.4025000000
H                -0.7530000000       -1.3990000000       30.1865000000
H                 0.4780000000       -0.1730000000       29.7725000000
H                -1.3270000000        1.1910000000       28.6975000000
H                -2.5210000000        0.0030000000       29.2915000000
H                -2.4520000000        1.9350000000       30.7295000000
H                -1.8260000000        0.5000000000       31.5895000000
H                 0.2040000000        1.5450000000       31.7925000000
H                -1.6310000000        3.1460000000       29.1905000000
H                -0.4150000000        4.4100000000       28.9755000000
H                 1.7400000000        3.1540000000       31.4705000000
H                 1.4770000000        4.4110000000       30.2575000000
H                 5.0748518422        6.1619193268       23.3397205611
H                 3.8292047522        1.6814103169       21.0097373727
H                -2.2039375963       14.3480894935       18.3350616154
H                -4.0917453042       15.5296155913       15.3852961701
H                -4.9647237926       -0.7981967904       20.0264376539
H                -4.1208757198        2.0225012289       18.2095899923
H                -8.5194033186        1.0645345134       17.1486280228
H                -8.5268019986        5.6073660875       15.6918025363
H               -12.6273555544        7.0931046697       16.6593947066
H               -11.8542535949        9.6058917938       14.4417684239
H               -13.9087470521       13.1542487253       19.3188433410
H                 1.7305540878       11.1416371044       27.6712381549
H                -4.3561885797       -3.8136170624       26.1144500745
H                 0.7396538814       -3.1478293091       27.8955350227
