 196 
 
N                18.7770000000        2.1590000000        9.0710000000
C                18.6310000000        2.5880000000        7.6880000000
C                18.4580000000        4.0870000000        7.5430000000
O                18.8620000000        4.6480000000        6.5250000000
C                17.4290000000        1.8940000000        7.0370000000
C                17.7480000000        0.5220000000        6.4680000000
C                16.5430000000       -0.3950000000        6.5570000000
C                16.8600000000       -1.7750000000        6.0060000000
N                15.7210000000       -2.7180000000        6.1990000000
H                17.9100000000        2.1690000000        9.6080000000
H                19.5230000000        2.2930000000        7.1350000000
H                16.6480000000        1.7700000000        7.7870000000
H                17.0650000000        2.5170000000        6.2200000000
H                18.0310000000        0.6200000000        5.4200000000
H                18.5650000000        0.0750000000        7.0340000000
H                16.2450000000       -0.5010000000        7.6000000000
H                15.7230000000        0.0270000000        5.9760000000
H                17.0640000000       -1.6990000000        4.9380000000
H                17.7300000000       -2.1790000000        6.5240000000
H                15.9640000000       -3.6530000000        5.8130000000
H                15.5080000000       -2.8160000000        7.2120000000
H                14.8760000000       -2.3600000000        5.7090000000
N                17.8970000000        4.7460000000        8.5480000000
C                17.5060000000        6.1480000000        8.4660000000
C                17.9420000000        6.8130000000        9.7690000000
O                17.1050000000        7.2610000000       10.5660000000
C                16.0070000000        6.2630000000        8.1390000000
C                15.1470000000        5.6810000000        9.2460000000
C                15.6500000000        7.7000000000        7.8310000000
H                17.6950000000        4.3270000000        9.4560000000
H                18.0210000000        6.6780000000        7.6650000000
H                15.7920000000        5.6720000000        7.2490000000
H                14.0970000000        5.7840000000        8.9710000000
H                15.3960000000        4.6270000000        9.3720000000
H                15.3440000000        6.2230000000       10.1710000000
H                14.5860000000        7.7600000000        7.6030000000
H                15.8790000000        8.3170000000        8.7000000000
H                16.2340000000        8.0350000000        6.9730000000
N                16.1120000000       12.0430000000        3.9330000000
C                17.3560000000       11.3190000000        4.1580000000
C                17.5930000000       10.2700000000        3.0830000000
O                18.6680000000       10.2190000000        2.4770000000
C                17.3080000000       10.7040000000        5.5540000000
C                18.5770000000       10.0070000000        5.9660000000
C                18.6200000000        9.6660000000        7.4380000000
O                17.5580000000        9.7650000000        8.1060000000
O                19.7160000000        9.3210000000        7.9270000000
H                15.3680000000       11.8210000000        4.5950000000
H                18.2030000000       12.0040000000        4.1100000000
H                17.1160000000       11.4970000000        6.2770000000
H                16.5030000000        9.9700000000        5.5840000000
H                18.6670000000        9.0770000000        5.4040000000
H                19.4240000000       10.6580000000        5.7480000000
N                16.6080000000        9.4220000000        2.8470000000
C                16.6130000000        8.4530000000        1.7570000000
C                15.1890000000        7.9180000000        1.6580000000
O                14.3380000000        8.2170000000        2.4980000000
C                17.6320000000        7.3350000000        1.9860000000
C                17.3170000000        6.4750000000        3.1920000000
O                16.2290000000        5.8970000000        3.3120000000
N                18.2900000000        6.3600000000        4.0870000000
H                15.7590000000        9.3760000000        3.4110000000
H                16.8810000000        8.9330000000        0.8160000000
H                17.6490000000        6.6880000000        1.1090000000
H                18.6150000000        7.7800000000        2.1400000000
H                18.1480000000        5.7960000000        4.9250000000
H                19.1800000000        6.8360000000        3.9370000000
N                14.9360000000        7.1320000000        0.6140000000
C                13.6440000000        6.4980000000        0.3950000000
C                13.7800000000        4.9830000000        0.2870000000
O                13.0980000000        4.3300000000       -0.5050000000
C                12.9300000000        7.1010000000       -0.8010000000
C                12.6340000000        8.5500000000       -0.6520000000
C                11.6100000000        8.9900000000        0.1810000000
C                13.3750000000        9.4990000000       -1.3310000000
C                11.3450000000       10.3340000000        0.3200000000
C                13.1100000000       10.8280000000       -1.1770000000
C                12.0940000000       11.2530000000       -0.3660000000
H                15.6220000000        6.9140000000       -0.1090000000
H                13.0140000000        6.6890000000        1.2630000000
H                13.5590000000        6.9790000000       -1.6830000000
H                11.9830000000        6.5810000000       -0.9430000000
H                11.0170000000        8.2700000000        0.7240000000
H                14.1710000000        9.1850000000       -1.9900000000
H                10.5470000000       10.6630000000        0.9690000000
H                13.7110000000       11.5550000000       -1.7030000000
H                11.8830000000       12.3080000000       -0.2670000000
N                14.6610000000        4.4030000000        1.1100000000
C                14.9480000000        2.9710000000        1.0230000000
C                13.7140000000        2.1480000000        1.3690000000
O                13.4380000000        1.1150000000        0.7420000000
C                16.1280000000        2.6090000000        1.9470000000
C                17.4000000000        3.3440000000        1.5130000000
C                16.3430000000        1.0970000000        1.9720000000
C                17.8440000000        3.0390000000        0.1170000000
H                15.1840000000        4.8910000000        1.8370000000
H                15.2270000000        2.7440000000       -0.0060000000
H                15.8850000000        2.9330000000        2.9590000000
H                17.2200000000        4.4170000000        1.5740000000
H                18.2110000000        3.0630000000        2.1850000000
H                17.1810000000        0.8690000000        2.6300000000
H                15.4380000000        0.6160000000        2.3420000000
H                16.5600000000        0.7530000000        0.9610000000
H                18.7500000000        3.6050000000       -0.0990000000
H                18.0450000000        1.9710000000        0.0340000000
H                17.0530000000        3.3240000000       -0.5770000000
N                12.9710000000        2.5740000000        2.3890000000
C                11.8460000000        1.8190000000        2.9190000000
C                10.5440000000        2.3430000000        2.3360000000
O                10.4140000000        3.5300000000        2.0330000000
C                11.8050000000        1.9040000000        4.4470000000
C                13.0440000000        1.2960000000        5.1100000000
C                13.1170000000        1.7180000000        6.5600000000
C                13.0200000000       -0.2170000000        4.9610000000
H                13.1300000000        3.4560000000        2.8760000000
H                11.9480000000        0.7700000000        2.6420000000
H                11.7440000000        2.9520000000        4.7410000000
H                10.9300000000        1.3640000000        4.8080000000
H                13.9490000000        1.6590000000        4.6220000000
H                14.0040000000        1.2750000000        7.0140000000
H                13.1770000000        2.8050000000        6.6110000000
H                12.2220000000        1.3710000000        7.0760000000
H                13.9070000000       -0.6350000000        5.4370000000
H                12.1220000000       -0.6070000000        5.4410000000
H                13.0140000000       -0.4690000000        3.9010000000
N                 9.5780000000        1.4450000000        2.1810000000
C                 8.3290000000        1.7440000000        1.4970000000
C                 7.1540000000        1.7090000000        2.4690000000
O                 7.2500000000        1.2440000000        3.6180000000
C                 8.0920000000        0.7540000000        0.3490000000
C                 9.2990000000        0.5380000000       -0.5520000000
C                 9.6450000000        1.7820000000       -1.3580000000
C                10.8890000000        1.5530000000       -2.2200000000
N                11.0730000000        2.6230000000       -3.2360000000
H                 9.6350000000        0.4860000000        2.5250000000
H                 8.3910000000        2.7510000000        1.0840000000
H                 7.8200000000       -0.2120000000        0.7740000000
H                 7.2790000000        1.1300000000       -0.2720000000
H                10.1620000000        0.2800000000        0.0620000000
H                 9.0840000000       -0.2700000000       -1.2510000000
H                 8.8120000000        2.0320000000       -2.0150000000
H                 9.8450000000        2.6100000000       -0.6780000000
H                11.7710000000        1.5380000000       -1.5790000000
H                10.7920000000        0.6010000000       -2.7430000000
H                11.9260000000        2.4340000000       -3.8010000000
H                10.2490000000        2.6570000000       -3.8700000000
H                11.1760000000        3.5450000000       -2.7670000000
N                 9.5850000000       10.0550000000        3.7240000000
C                10.6130000000        9.1790000000        4.2690000000
C                 9.9850000000        8.3770000000        5.4020000000
O                 9.5900000000        8.9320000000        6.4290000000
C                11.8400000000        9.9670000000        4.7420000000
C                12.3930000000       10.8150000000        3.5980000000
C                11.5100000000       10.8390000000        5.9440000000
H                 9.6330000000       11.0140000000        4.0690000000
H                10.9440000000        8.4830000000        3.4980000000
H                12.6070000000        9.2580000000        5.0550000000
H                13.2630000000       11.3670000000        3.9540000000
H                12.6800000000       10.1590000000        2.7760000000
H                11.6220000000       11.5100000000        3.2670000000
H                12.4070000000       11.3800000000        6.2470000000
H                10.7260000000       11.5440000000        5.6660000000
H                11.1660000000       10.2030000000        6.7600000000
O                13.5900000000        5.0680000000        4.3340000000
H                14.2560000000        5.5800000000        4.3520000000
H                12.9380000000        5.5070000000        4.6290000000
O                16.9820000000        6.7140000000       -1.5510000000
H                17.7020000000        7.1460000000       -1.5740000000
H                16.3960000000        7.1990000000       -1.9070000000
O                20.9070000000        7.6190000000        3.7540000000
H                21.7130000000        7.8530000000        3.7320000000
H                20.4490000000        8.3140000000        3.6400000000
O                21.7380000000        8.4850000000        6.3530000000
H                22.4470000000        8.9360000000        6.3510000000
H                21.1040000000        9.0300000000        6.4300000000
O                20.9190000000        3.6580000000        5.0650000000
H                21.5930000000        4.1590000000        5.0650000000
H                20.2440000000        4.1580000000        5.0650000000
O                11.4350000000        5.9750000000        2.8480000000
H                11.9350000000        6.5920000000        3.1220000000
H                10.8070000000        6.3410000000        2.4270000000
O                12.9930000000       -1.5860000000        1.2300000000
H                13.6660000000       -1.0980000000        1.1130000000
H                12.3180000000       -1.1020000000        1.1060000000
O                20.9830000000       11.7290000000        3.3200000000
H                21.6460000000       12.2450000000        3.3190000000
H                20.2980000000       12.2140000000        3.3570000000
O                24.8480000000        8.2690000000        3.7680000000
H                25.3290000000        8.6070000000        4.3680000000
H                24.1030000000        8.6540000000        3.8090000000
H                19.0895035590        1.3152688634        9.0924311638
H                18.9142655067        6.8918049724        9.9892034534
H                16.2635885514       12.9278374950        3.9969024136
H                 6.2636820920        2.0691175143        2.1903435833
H                 9.6644485355       10.0904093604        2.8282131351
H                 9.8883397437        7.3851731254        5.3187158740
