 518 
 
N                12.8843780016       27.2320234292        3.3651690720
C                11.6044658063       27.4260502927        4.0341428194
C                11.9623362009       28.0735145306        5.3787008651
O                12.9019263514       27.6039643690        6.0386666115
C                10.8657893301       26.1205126072        4.2543104293
C                10.3908222163       25.5676938928        2.8988891794
C                 9.5985523393       26.3577938188        5.1188426093
C                10.0988415011       24.0482399588        2.8996101672
H                13.4865450820       26.5348913782        3.7998087964
H                11.0207768181       28.1022739582        3.4025230715
H                11.5344709021       25.4071092914        4.7391992680
H                 9.4987139328       26.1093620987        2.5826090906
H                11.1629574632       25.7444189528        2.1454271104
H                 8.9905093645       25.4618521828        5.1436909229
H                 9.8598073984       26.6156433902        6.1425807098
H                 9.0124907017       27.1651044887        4.6913721787
H                 9.7041674816       23.7459438989        1.9360093897
H                11.0193634448       23.5062507519        3.0922384556
H                 9.3706144753       23.7907093224        3.6631230336
N                 7.4891609125       25.1005821696       11.8548325163
C                 6.1257152126       24.6121160440       11.7234397550
C                 5.8636654185       24.5259041906       10.2216127798
O                 5.3453453367       23.5458713671        9.6738698499
C                 5.0485476242       25.4865664478       12.3533425633
C                 5.1674008339       25.7439293663       13.8467855086
C                 5.1473543878       24.5521326121       14.8439418605
O                 4.3148296569       24.6399596631       15.7798266177
O                 6.0240285851       23.6617411447       14.7241571538
H                 7.6385588238       25.8384426640       12.5519226653
H                 6.0527709506       23.5991129679       12.1446148545
H                 5.0373785513       26.4523940254       11.8476648683
H                 4.0844868120       25.0088873952       12.1534589207
H                 6.1056858677       26.2450918979       14.0693184049
H                 4.3481768088       26.3979410101       14.1467136871
N                 6.3552308419       25.5641828643        9.5023733894
C                 6.1042574258       25.6013031415        8.0617828306
C                 6.8337040278       24.4964129244        7.2897766668
O                 6.2993310072       23.8578703987        6.3615883981
C                 6.4890424349       26.9790670667        7.4933799476
C                 6.0525644398       27.2403185825        6.0121278903
C                 6.4534884269       28.6833771837        5.5853747234
N                 5.4711437709       29.5627388321        6.2869613656
C                 5.6433580625       30.8697748716        6.3768857090
N                 6.8149954916       31.3468053240        6.0021713489
N                 4.7299444493       31.6367059419        6.9486078283
H                 6.6638490171       26.4131542051        9.9709374690
H                 5.0312035513       25.4267212666        7.8909799060
H                 5.9959761801       27.7337319988        8.1063764899
H                 7.5680479113       27.1088966594        7.5742050195
H                 6.5347807005       26.5080998582        5.3690358293
H                 4.9765918706       27.1149772172        5.9184144126
H                 7.4595164734       28.8858031425        5.9486457833
H                 6.3673065931       28.8202760254        4.5114056697
H                 4.6128057046       29.1446650163        6.6367319288
H                 7.4619091097       30.8019739542        5.4590014422
H                 6.9886039456       32.3493982158        6.0769560044
H                 3.8298435110       31.2627139478        7.2071061110
H                 4.8608501682       32.6386675193        7.1055996157
N                 8.1077592200       24.3357484779        7.6640046578
C                 8.8705887420       23.2488487895        7.1218964945
C                 8.2504417281       21.9066600164        7.3431877928
O                 8.0686813462       21.0560364055        6.4575375517
C                10.3225874700       23.2361473697        7.7056225785
C                11.1111555308       21.9492276324        7.3856741216
C                11.6233509402       21.6533630429        6.1279660927
C                11.3531809917       21.0176954645        8.3794341240
C                12.2983987006       20.5027515048        5.7573735673
C                12.0119739838       19.8254476178        8.0424220043
C                12.4293094004       19.5519714415        6.7445722503
H                 8.5023273535       24.8867981608        8.4235898092
H                 8.9322776341       23.3580043399        6.0284137826
H                10.8450121025       24.1091118020        7.3216416056
H                10.2325889495       23.3175909800        8.7884331391
H                11.4728001047       22.4106250571        5.3616465334
H                10.9971638894       21.1678701486        9.3861152566
H                12.6924386062       20.3754140672        4.7662383521
H                12.1444233124       19.0750934226        8.8052428127
H                12.8866657441       18.6037094086        6.5466450121
N                 7.7120851535       21.6740874836        8.5802980489
C                 7.0989705851       20.3432207282        8.8347582744
C                 5.8117013067       20.1082692176        7.9588854816
O                 5.5869504108       19.0091113386        7.4520620916
H                 7.8383391984       22.2951599895        9.3700856064
H                 7.8069202192       19.5558162578        8.5752133995
C                 6.6589625231       20.3006754987       10.3008423797
C                 7.8238659048       20.1881928060       11.2777927738
C                 8.4192931445       18.7768447175       11.1657035513
O                 9.5652115790       18.6309365434       10.7153521778
O                 7.6589644804       17.8473806818       11.5554186275
H                 6.0837370836       21.2096323947       10.4985168744
H                 5.9892353655       19.4477024085       10.4427107294
H                 8.5760150892       20.9466426006       11.0742499935
H                 7.4376926436       20.3152987931       12.2906314479
N                 5.0564902988       21.1614272626        7.7281201323
C                 3.8474215159       21.0971562458        6.8542685559
C                 4.2700796487       20.6699595527        5.4626249012
O                 3.6995608351       19.7863977610        4.7898115399
C                 3.1207488859       22.4173729713        6.9229259888
C                 2.0266422695       22.4353944796        5.8983681464
S                 1.3802256733       24.0777930615        5.6963288726
C                 2.6484746715       24.8601354274        4.6411944759
H                 5.1708481344       22.0075393520        8.2759521880
H                 3.2032116154       20.2953607175        7.2469641689
H                 2.7284663510       22.5563732163        7.9308525125
H                 3.8456272749       23.2114499732        6.7149551220
H                 2.3846610816       22.0946935308        4.9241375487
H                 1.1951124826       21.7930201966        6.1891064788
H                 2.3442225004       25.8944909111        4.5559717203
H                 3.6282520724       24.7771826057        5.1010921977
H                 2.6486813659       24.3779795687        3.6686335762
N                 5.2639590183       21.3961556662        4.9121159855
C                 5.6743383447       21.1181824825        3.5965184413
C                 6.2762311116       19.7067298937        3.4556098487
O                 6.1484167859       19.0398462594        2.4336925623
C                 6.6924545299       22.1402880607        3.0211793445
C                 5.9912110627       23.4229673993        2.5684166104
C                 4.8956920930       23.4061316080        1.6938452491
C                 6.2967653767       24.6600623096        3.0445667401
C                 4.1932519745       24.5301535470        1.3576517189
C                 5.6721678096       25.8413221349        2.6047032915
C                 4.5396362928       25.7542343001        1.8378474626
H                 5.7173994052       22.1347539473        5.4443080277
H                 4.7831063497       21.1028011149        2.9506581792
H                 7.4342618261       22.3563228945        3.7872792620
H                 7.1740624807       21.6764314515        2.1615122737
H                 4.5946657337       22.4574967890        1.2658938111
H                 7.1213254093       24.7612568610        3.7375136045
H                 3.3274281438       24.4229560898        0.7181716469
H                 5.9872416492       26.7767339674        3.0295692713
H                 3.9776909181       26.6312353012        1.5586878839
N                 7.0247349250       19.3383790152        4.4750843841
C                 7.6688637639       17.9977234056        4.4494224330
C                 6.5659942301       16.9094818533        4.4140948014
O                 6.6643699789       15.9267105834        3.6497086257
H                 7.1806727395       19.9151776745        5.2925977408
H                 8.2287268646       17.9044827087        3.5155232399
C                 8.5418930727       17.8562392948        5.6806443456
C                 9.3135632151       16.5479243194        5.6097818969
C                 8.9304892399       15.6454485362        6.7469933270
N                 9.2711601945       16.2935710972        7.9954427340
C                 8.4688690189       16.3400178777        9.0629319397
N                 7.1484218627       16.5050352467        8.9481611753
N                 9.0557385390       16.1633104305       10.2544252514
H                 9.2127658402       18.7153997568        5.7201662651
H                 7.9065273371       17.8967657591        6.5661962823
H                 9.1181389875       16.0323265879        4.6697632219
H                10.3821102150       16.7422391750        5.6780379940
H                 7.8626992823       15.4372748584        6.7174010673
H                 9.4422741064       14.6806440769        6.6666031895
H                10.2605368591       16.2647956176        8.2069284006
H                 6.6599993079       16.3542730298        8.0829809991
H                 6.6101841078       16.6052140590        9.7933200858
H                10.0269015823       16.4436624543       10.3048705431
H                 8.5007738019       16.5773689106       11.0376362217
N                 5.4681503270       17.1211737037        5.1385949526
C                 4.3922353055       16.1006683222        5.1679523068
C                 3.6825691789       16.0406543076        3.8027341010
O                 3.3725524690       14.9525512449        3.3107973237
C                 3.3111438651       16.5020572362        6.2210945953
C                 2.4239621871       15.2997128940        6.4902434379
C                 1.2520547238       15.4280282414        7.4965207415
O                 1.1491514053       16.4774819583        8.1409602094
O                 0.4810613201       14.4298684847        7.5764513699
H                 5.4609101122       17.8460103260        5.8478467529
H                 4.8162074045       15.1201195566        5.3922200951
H                 3.8001235897       16.8254329242        7.1402449166
H                 2.7218007123       17.3172231191        5.8194218545
H                 1.9758097549       14.9475189903        5.5557670211
H                 3.0334958021       14.4725999294        6.8708899439
N                 3.3997144547       17.2097852311        3.2302823492
C                 2.7887724123       17.2488534972        1.9524348244
C                 3.6829401239       16.5548171256        0.9185496108
O                 3.2076198244       15.8067334869        0.0607591968
C                 2.5719105780       18.7170377886        1.5124276933
C                 1.4399326726       19.3872470087        2.3180548307
C                 1.3562155405       20.8269389721        1.8984877841
C                 0.0613050983       18.8411487799        2.0132818201
H                 3.6118545736       18.0744111902        3.7140059877
H                 1.8409904961       16.6970574369        1.9644661558
H                 3.5085548237       19.2519003784        1.6634440886
H                 2.3155999974       18.7199056852        0.4527309833
H                 1.6373717666       19.2987091713        3.3828502687
H                 0.5892199471       21.3470462898        2.4688813385
H                 2.2979488381       21.3501708668        2.0719231367
H                 1.1156140665       20.9067783249        0.8407328051
H                -0.6705713805       19.3830761473        2.6074817998
H                -0.1883239250       18.9592540789        0.9634035574
H                -0.0427371263       17.7862466650        2.2653935112
N                 4.9743244599       16.8501460759        0.9437895356
C                 5.8776158835       16.2750240845       -0.0604097288
C                 5.9835927172       14.7803532921        0.0989518972
O                 5.9515518086       13.9441039127       -0.8454145535
C                 7.2629255771       16.8583481662        0.0801138020
C                 8.2598859019       16.4621309382       -0.9780859082
O                 9.3210341968       15.9078168378       -0.6873313050
N                 7.8517847816       16.7075484388       -2.1658585684
H                 5.3519177963       17.5069019491        1.6199060711
H                 5.4330356689       16.4577201767       -1.0476800393
H                 7.1701041373       17.9506237714        0.0767891454
H                 7.6631681714       16.5738813208        1.0576768602
H                 8.3233672788       16.3223936639       -2.9838752705
H                 6.9752301410       17.1881163569       -2.3005115922
N                 6.0351281611       14.3176556461        1.3578895281
C                 6.0752291471       12.8744424836        1.5808604319
C                 4.8136159238       12.1658131325        1.1126470434
O                 4.8131212951       11.0336735364        0.6353331100
C                 6.2207793203       12.3997238911        3.0499576174
C                 7.5702605151       12.7368964573        3.6585784506
C                 7.6564037514       12.4069804100        5.1778387809
O                 6.5984038212       12.0521024979        5.7636337711
O                 8.7919809812       12.5478253723        5.6768601186
H                 6.1387341499       14.9222948676        2.1701496675
H                 6.9006203776       12.4557106239        0.9864018293
H                 5.4300350985       12.8672304212        3.6415931951
H                 6.0841701965       11.3182374859        3.0424653998
H                 8.3682107213       12.2004231714        3.1436251417
H                 7.7683984729       13.8071815235        3.5629229644
N                 3.6551162983       12.8103981127        1.3349745090
C                 2.3574282830       12.2737940286        0.9349411757
C                 2.3134265755       12.1150090182       -0.6038959124
O                 1.8515939432       11.0908103456       -1.1138732172
C                 1.2583512831       13.1381861188        1.5659166914
H                 3.6409612285       13.6937174184        1.8366785954
H                 2.2847612798       11.2422195759        1.3067638911
H                 0.3003171332       12.6396223405        1.4614384450
H                 1.4929246230       13.2747237370        2.6167745279
H                 1.2318723650       14.1110094125        1.0835058101
N                 2.8303839899       13.1476675007       -1.3503251245
C                 2.8738593426       13.0842847008       -2.7883852329
C                 3.7186779367       11.9781799967       -3.2865126512
O                 3.3855371369       11.2610106840       -4.2296600646
C                 3.2327595377       14.3988510655       -3.3863966534
C                 2.1870819095       15.5239592384       -3.1126450878
C                 2.9293595275       16.7553539847       -3.5681653420
C                 0.9187099685       15.2662500831       -3.9400256660
H                 3.1640255999       13.9720453810       -0.8652504206
H                 1.8640357274       12.8095280240       -3.1427509895
H                 4.2076351645       14.6925833097       -2.9887497841
H                 3.3200968759       14.2586463360       -4.4640803112
H                 1.9533041710       15.5710251644       -2.0505147074
H                 2.3166640770       17.6487618815       -3.4664789614
H                 3.8324927829       16.8900497719       -2.9823215686
H                 3.2008995505       16.6520666290       -4.6158873767
H                 0.2507093959       16.1232722256       -3.9007870144
H                 1.1751008932       15.0908875377       -4.9827275160
H                 0.3829658550       14.3931335342       -3.5834264352
O                10.1785203159       15.2391104185        1.7838307159
H                 9.9852157891       15.5408543651        0.8793589688
H                10.2667632506       14.2897498986        1.6945110551
O                 3.1579017678       22.0248804471       10.5897259064
H                 3.9741948366       22.4798143293       10.3374501950
H                 3.2188786159       21.8661192112       11.5329994585
O                 6.2011016700       14.3174083471        7.6536713141
H                 5.8281017694       13.8225419597        8.3893693655
H                 6.3854281014       13.6442046876        6.9832727710
O                -1.1474233888       26.5585159740        5.5845981743
H                -1.0711238260       27.0849608731        6.3856117312
H                -2.0704161299       26.2707823483        5.4933083645
O                 1.1474233888       18.9414840260        5.5845981743
H                 1.0711238260       18.4150391269        6.3856117312
H                 2.0704161299       19.2292176517        5.4933083645
O                12.8496218052       15.7161763379       12.0897557180
H                12.9507759425       16.6077534802       12.4322346819
H                12.2934489010       15.2401563445       12.7176224442
N                16.3931035341       11.2309201753        5.7726238866
C                15.7447546915       11.4253128935        7.0622879925
C                16.2554660831       10.4326541002        8.0861422677
O                16.1757083619        9.2395904861        7.8525496729
C                14.2329827872       11.1906808492        6.8323698630
C                13.3884683324       11.9687232166        7.8630962208
C                11.8552275451       11.7367012739        7.6933621721
N                11.1547978968       12.4483515806        8.7583335104
C                 9.8562893598       12.3094627542        9.0438027704
N                 9.1411444203       11.3698529053        8.4133017040
N                 9.3669854750       12.9997051443       10.0774657823
H                16.0641507627       10.4275454666        5.2555526587
H                15.9386375193       12.4558382549        7.3709441900
H                13.9640607478       11.5210032936        5.8292002658
H                14.0314424400       10.1215424536        6.8983532547
H                13.6682090134       11.6307741609        8.8610950542
H                13.6039394330       13.0292739339        7.7536132775
H                11.5303524904       12.0839257227        6.7081427844
H                11.6373686573       10.6709911689        7.7671920618
H                11.6693055433       13.2005833768        9.1959811337
H                 9.4000074429       11.1075553838        7.4722468841
H                 8.1435828235       11.3124885137        8.5949408858
H                 9.9321690386       13.6697657228       10.5719450743
H                 8.3914653453       12.9112733611       10.3091728345
N                14.2195542305       21.7938815129        1.9025148223
C                13.4659666315       20.6121670371        1.4770865713
C                13.7585271360       20.2239353230        0.0774825282
O                13.6926122601       21.0185038914       -0.8278041412
C                11.9504801612       20.9135147062        1.5558914763
C                11.0907253580       19.7070169613        1.3051752311
C                11.3748264923       18.6547412896        2.3463640235
C                 9.5961510821       20.0994313338        1.4780270239
H                14.0856043767       22.6385355259        1.3592009004
H                13.7373226306       19.8179201649        2.1757643627
H                11.7380701351       21.3128891753        2.5490031094
H                11.7380718607       21.6983101554        0.8243345199
H                11.2494956447       19.3115108413        0.2989056193
H                10.7062258609       17.8060973313        2.2094048034
H                12.3853574626       18.2604298803        2.2838686234
H                11.2130624389       19.0631079846        3.3408739377
H                 8.9557940760       19.2371327387        1.3282664998
H                 9.4414687569       20.4868205317        2.4807683361
H                 9.3163003669       20.8679225464        0.7603403873
N                 5.2639590183       24.1038443338       -4.9121159855
C                 5.6743383447       24.3818175175       -3.5965184413
C                 6.2762311116       25.7932701063       -3.4556098487
O                 6.1484167859       26.4601537406       -2.4336925623
C                 6.6924545299       23.3597119393       -3.0211793445
C                 5.9912110627       22.0770326007       -2.5684166104
C                 4.8956920930       22.0938683920       -1.6938452491
C                 6.2967653767       20.8399376904       -3.0445667401
C                 4.1932519745       20.9698464530       -1.3576517189
C                 5.6721678096       19.6586778651       -2.6047032915
C                 4.5396362928       19.7457656999       -1.8378474626
H                 5.7173994052       23.3652460527       -5.4443080277
H                 4.7831063497       24.3971988851       -2.9506581792
H                 7.4342618261       23.1436771055       -3.7872792620
H                 7.1740624807       23.8235685485       -2.1615122737
H                 4.5946657337       23.0425032110       -1.2658938111
H                 7.1213254093       20.7387431390       -3.7375136045
H                 3.3274281438       21.0770439102       -0.7181716469
H                 5.9872416492       18.7232660326       -3.0295692713
H                 3.9776909181       18.8687646988       -1.5586878839
N                 3.3997144547       28.2902147689       -3.2302823492
C                 2.7887724123       28.2511465028       -1.9524348244
C                 3.6829401239       28.9451828744       -0.9185496108
O                 3.2076198244       29.6932665131       -0.0607591968
C                 2.5719105780       26.7829622114       -1.5124276933
C                 1.4399326726       26.1127529913       -2.3180548307
C                 1.3562155405       24.6730610279       -1.8984877841
C                 0.0613050983       26.6588512201       -2.0132818201
H                 3.6118545736       27.4255888098       -3.7140059877
H                 1.8409904961       28.8029425631       -1.9644661558
H                 3.5085548237       26.2480996216       -1.6634440886
H                 2.3155999974       26.7800943148       -0.4527309833
H                 1.6373717666       26.2012908287       -3.3828502687
H                 0.5892199471       24.1529537102       -2.4688813385
H                 2.2979488381       24.1498291332       -2.0719231367
H                 1.1156140665       24.5932216751       -0.8407328051
H                -0.6705713805       26.1169238527       -2.6074817998
H                -0.1883239250       26.5407459211       -0.9634035574
H                -0.0427371263       27.7137533350       -2.2653935112
N                 4.9743244599       28.6498539241       -0.9437895356
C                 5.8776158835       29.2249759155        0.0604097288
C                 5.9835927172       30.7196467079       -0.0989518972
O                 5.9515518086       31.5558960873        0.8454145535
C                 7.2629255771       28.6416518338       -0.0801138020
C                 8.2598859019       29.0378690618        0.9780859082
O                 9.3210341968       29.5921831622        0.6873313050
N                 7.8517847816       28.7924515612        2.1658585684
H                 5.3519177963       27.9930980509       -1.6199060711
H                 5.4330356689       29.0422798233        1.0476800393
H                 7.1701041373       27.5493762286       -0.0767891454
H                 7.6631681714       28.9261186792       -1.0576768602
H                 8.3233672788       29.1776063361        2.9838752705
H                 6.9752301410       28.3118836431        2.3005115922
N                 2.8303839899       32.3523324993        1.3503251245
C                 2.8738593426       32.4157152992        2.7883852329
C                 3.7186779367       33.5218200033        3.2865126512
O                 3.3855371369       34.2389893160        4.2296600646
C                 3.2327595377       31.1011489345        3.3863966534
C                 2.1870819095       29.9760407616        3.1126450878
C                 2.9293595275       28.7446460153        3.5681653420
C                 0.9187099685       30.2337499169        3.9400256660
H                 3.1640255999       31.5279546190        0.8652504206
H                 1.8640357274       32.6904719760        3.1427509895
H                 4.2076351645       30.8074166903        2.9887497841
H                 3.3200968759       31.2413536640        4.4640803112
H                 1.9533041710       29.9289748356        2.0505147074
H                 2.3166640770       27.8512381185        3.4664789614
H                 3.8324927829       28.6099502281        2.9823215686
H                 3.2008995505       28.8479333710        4.6158873767
H                 0.2507093959       29.3767277744        3.9007870144
H                 1.1751008932       30.4091124623        4.9827275160
H                 0.3829658550       31.1068664658        3.5834264352
N                16.9485577871       15.9081780423        9.1835354937
C                17.3250476071       15.6744537460        7.8105868571
C                18.8216241758       15.9824166824        7.6652887007
O                19.3874912711       16.8813090934        8.2940263036
H                16.9815736107       16.8800896163        9.4738644187
H                17.1704601878       14.6152221405        7.5910949854
C                16.6016776871       16.5995809653        6.8056660189
C                15.4075491141       16.0677829243        6.0805533677
C                15.3134619154       14.8240047764        5.4734262512
C                14.3306912008       16.9188806347        5.9223709781
C                14.1454639306       14.3951956747        4.8839451772
C                13.1619526808       16.5198390025        5.2962309652
C                13.0253036138       15.2218583078        4.8358592379
O                11.8369512813       14.7131331070        4.3755652132
H                16.3197993764       17.5056103443        7.3430479479
H                17.3453401328       16.8912091963        6.0567143312
H                16.1730276102       14.1749665047        5.4581302143
H                14.4414982075       17.9087580223        6.3302772913
H                14.0965600376       13.4365888257        4.3915717770
H                12.3343202827       17.2031406022        5.1779654040
H                11.3066590765       15.3897418297        3.9399992140
N                -5.0564902988       24.3385727374        7.7281201323
C                -3.8474215159       24.4028437542        6.8542685559
C                -4.2700796487       24.8300404473        5.4626249012
O                -3.6995608351       25.7136022390        4.7898115399
C                -3.1207488859       23.0826270287        6.9229259888
C                -2.0266422695       23.0646055204        5.8983681464
S                -1.3802256733       21.4222069385        5.6963288726
C                -2.6484746715       20.6398645726        4.6411944759
H                -5.1708481344       23.4924606480        8.2759521880
H                -3.2032116154       25.2046392825        7.2469641689
H                -2.7284663510       22.9436267837        7.9308525125
H                -3.8456272749       22.2885500268        6.7149551220
H                -2.3846610816       23.4053064692        4.9241375487
H                -1.1951124826       23.7069798034        6.1891064788
H                -2.3442225004       19.6055090889        4.5559717203
H                -3.6282520724       20.7228173943        5.1010921977
H                -2.6486813659       21.1220204313        3.6686335762
N                -5.2639590183       24.1038443338        4.9121159855
C                -5.6743383447       24.3818175175        3.5965184413
C                -6.2762311116       25.7932701063        3.4556098487
O                -6.1484167859       26.4601537406        2.4336925623
C                -6.6924545299       23.3597119393        3.0211793445
C                -5.9912110627       22.0770326007        2.5684166104
C                -4.8956920930       22.0938683920        1.6938452491
C                -6.2967653767       20.8399376904        3.0445667401
C                -4.1932519745       20.9698464530        1.3576517189
C                -5.6721678096       19.6586778651        2.6047032915
C                -4.5396362928       19.7457656999        1.8378474626
H                -5.7173994052       23.3652460527        5.4443080277
H                -4.7831063497       24.3971988851        2.9506581792
H                -7.4342618261       23.1436771055        3.7872792620
H                -7.1740624807       23.8235685485        2.1615122737
H                -4.5946657337       23.0425032110        1.2658938111
H                -7.1213254093       20.7387431390        3.7375136045
H                -3.3274281438       21.0770439102        0.7181716469
H                -5.9872416492       18.7232660326        3.0295692713
H                -3.9776909181       18.8687646988        1.5586878839
N                -3.3997144547       28.2902147689        3.2302823492
C                -2.7887724123       28.2511465028        1.9524348244
C                -3.6829401239       28.9451828744        0.9185496108
O                -3.2076198244       29.6932665131        0.0607591968
C                -2.5719105780       26.7829622114        1.5124276933
C                -1.4399326726       26.1127529913        2.3180548307
C                -1.3562155405       24.6730610279        1.8984877841
C                -0.0613050983       26.6588512201        2.0132818201
H                -3.6118545736       27.4255888098        3.7140059877
H                -1.8409904961       28.8029425631        1.9644661558
H                -3.5085548237       26.2480996216        1.6634440886
H                -2.3155999974       26.7800943148        0.4527309833
H                -1.6373717666       26.2012908287        3.3828502687
H                -0.5892199471       24.1529537102        2.4688813385
H                -2.2979488381       24.1498291332        2.0719231367
H                -1.1156140665       24.5932216751        0.8407328051
H                 0.6705713805       26.1169238527        2.6074817998
H                 0.1883239250       26.5407459211        0.9634035574
H                 0.0427371263       27.7137533350        2.2653935112
N                -3.3997144547       17.2097852311       -3.2302823492
C                -2.7887724123       17.2488534972       -1.9524348244
C                -3.6829401239       16.5548171256       -0.9185496108
O                -3.2076198244       15.8067334869       -0.0607591968
C                -2.5719105780       18.7170377886       -1.5124276933
C                -1.4399326726       19.3872470087       -2.3180548307
C                -1.3562155405       20.8269389721       -1.8984877841
C                -0.0613050983       18.8411487799       -2.0132818201
H                -3.6118545736       18.0744111902       -3.7140059877
H                -1.8409904961       16.6970574369       -1.9644661558
H                -3.5085548237       19.2519003784       -1.6634440886
H                -2.3155999974       18.7199056852       -0.4527309833
H                -1.6373717666       19.2987091713       -3.3828502687
H                -0.5892199471       21.3470462898       -2.4688813385
H                -2.2979488381       21.3501708668       -2.0719231367
H                -1.1156140665       20.9067783249       -0.8407328051
H                 0.6705713805       19.3830761473       -2.6074817998
H                 0.1883239250       18.9592540789       -0.9634035574
H                 0.0427371263       17.7862466650       -2.2653935112
N                -2.8303839899       13.1476675007        1.3503251245
C                -2.8738593426       13.0842847008        2.7883852329
C                -3.7186779367       11.9781799967        3.2865126512
O                -3.3855371369       11.2610106840        4.2296600646
C                -3.2327595377       14.3988510655        3.3863966534
C                -2.1870819095       15.5239592384        3.1126450878
C                -2.9293595275       16.7553539847        3.5681653420
C                -0.9187099685       15.2662500831        3.9400256660
H                -3.1640255999       13.9720453810        0.8652504206
H                -1.8640357274       12.8095280240        3.1427509895
H                -4.2076351645       14.6925833097        2.9887497841
H                -3.3200968759       14.2586463360        4.4640803112
H                -1.9533041710       15.5710251644        2.0505147074
H                -2.3166640770       17.6487618815        3.4664789614
H                -3.8324927829       16.8900497719        2.9823215686
H                -3.2008995505       16.6520666290        4.6158873767
H                -0.2507093959       16.1232722256        3.9007870144
H                -1.1751008932       15.0908875377        4.9827275160
H                -0.3829658550       14.3931335342        3.5834264352
H                12.7428588552       26.9636031449        2.5178657720
H                11.4412008576       28.8604140990        5.7091657244
H                 8.0301486098       24.4213306355       12.0913693310
H                 4.5999611514       11.7881781969       -2.8538011865
H                16.2513434656       11.9522078743        5.2533473340
H                16.6532434906       10.7588244517        8.9436887888
H                13.9917097930       22.0076921028        2.7465361159
H                14.0185063995       19.2822770974       -0.1362709948
H                 4.3955411649       23.8675174753       -4.9123345932
H                 6.7914838883       26.1949786885       -4.2126731162
H                 2.8688231180       28.7368635388       -3.8035704661
H                 6.0886341107       31.1191845815       -1.0096306513
H                 1.9787346232       32.4358232574        1.0715373026
H                 4.5999611514       33.7118218031        2.8538011865
H                16.1039835352       15.6266359429        9.3155520811
H                19.3844540279       15.4434979623        7.0385597555
H                -5.0352195188       25.0156256682        8.3206966107
H                -6.7914838883       26.1949786885        4.2126731162
H                -2.8688231180       28.7368635388        3.8035704661
H                -4.6715274943       28.7950827887        0.9313938848
H                -2.8688231180       16.7631364612       -3.8035704661
H                -4.6715274943       16.7049172113       -0.9313938848
H                -1.9787346232       13.0641767426        1.0715373026
H                -4.5999611514       11.7881781969        2.8538011865
