227
Properties=species:S:1:pos:R:3 pbc="F F F"
N      15.09700000      19.47600000      -6.86600000 
C      15.22200000      20.90700000      -6.61400000 
C      15.21700000      21.10800000      -5.10500000 
O      14.64000000      20.25300000      -4.38800000 
C      14.01800000      21.61800000      -7.22100000 
C      13.87900000      21.43100000      -8.68100000 
C      13.12500000      20.37900000      -9.19100000 
C      14.54800000      22.27900000      -9.54700000 
C      13.07500000      20.18100000     -10.54900000 
C      14.51700000      22.05200000     -10.91700000 
C      13.77900000      21.00400000     -11.41000000 
H      14.33900000      18.99000000      -6.43400000 
H      16.13900000      21.25800000      -7.04700000 
H      13.14100000      21.24000000      -6.71600000 
H      14.09100000      22.67100000      -6.98600000 
H      12.60600000      19.72700000      -8.52000000 
H      15.11800000      23.09300000      -9.14500000 
H      12.51200000      19.36500000     -10.94500000 
H      15.05700000      22.69700000     -11.58200000 
H      13.76900000      20.79900000     -12.45800000 
N      15.80200000      22.14000000      -4.52200000 
C      15.78000000      22.41000000      -3.14700000 
C      15.05100000      23.71300000      -2.90300000 
O      15.21400000      24.70200000      -3.67700000 
H      16.26500000      22.80600000      -5.10500000 
H      15.26400000      21.62000000      -2.63000000 
C      17.15500000      22.42900000      -2.65100000 
O      16.96700000      22.47300000      -1.25700000 
C      17.93100000      23.56600000      -3.24900000 
H      17.61600000      21.48600000      -2.90000000 
H      17.25600000      23.27600000      -0.83200000 
H      18.95500000      23.52900000      -2.91300000 
H      17.93700000      23.49000000      -4.32300000 
H      17.53200000      24.51700000      -2.96200000 
N      14.21900000      23.71000000      -1.89600000 
C      13.46100000      24.89100000      -1.48700000 
C      13.77000000      25.28300000      -0.09300000 
O      13.68700000      24.47800000       0.82300000 
C      11.95700000      24.58300000      -1.56700000 
C      11.09500000      25.77100000      -1.31400000 
C      11.38200000      26.82600000      -2.34900000 
C       9.61000000      25.39200000      -1.46900000 
H      14.07600000      22.87100000      -1.36900000 
H      13.72500000      25.67600000      -2.16900000 
H      11.76300000      24.21100000      -2.56400000 
H      11.74800000      23.78100000      -0.87100000 
H      11.26200000      26.16600000      -0.32000000 
H      10.68700000      27.64900000      -2.25500000 
H      12.37700000      27.24300000      -2.26800000 
H      11.27400000      26.40400000      -3.33900000 
H       8.98200000      26.25300000      -1.29400000 
H       9.43500000      25.03900000      -2.47900000 
H       9.32800000      24.60800000      -0.77700000 
O      20.05100000      19.26900000      -1.55400000 
H      20.72200000      19.86700000      -1.24000000 
H      19.20600000      19.49500000      -1.17300000 
O      16.79500000      24.59800000      -6.21000000 
H      17.50700000      25.22900000      -6.28100000 
H      16.23800000      24.81600000      -5.45800000 
O      19.26900000      25.44900000      -1.55400000 
H      19.86700000      24.77800000      -1.24000000 
H      19.49500000      26.29400000      -1.17300000 
O      19.26900000      20.05100000       1.55400000 
H      19.86700000      20.72200000       1.24000000 
H      19.49500000      19.20600000       1.17300000 
O      18.93500000      26.92800000      -5.16600000 
H      19.28800000      26.15100000      -4.74000000 
H      19.59100000      27.61700000      -5.19000000 
O      18.57200000      18.93500000      -5.16600000 
H      19.34900000      19.28800000      -4.74000000 
H      17.88300000      19.59100000      -5.19000000 
O      16.84500000      26.66200000      -9.23200000 
H      16.32700000      25.86400000      -9.19400000 
H      17.67000000      26.55800000      -8.76300000 
N      16.99400000      29.61000000      -9.21600000 
C      17.35200000      29.83700000      -7.83900000 
C      18.82300000      29.53700000      -7.66500000 
O      19.38400000      28.60600000      -8.27900000 
H      16.93200000      28.65300000      -9.50100000 
H      17.18500000      30.87300000      -7.61600000 
C      16.40600000      28.99700000      -6.97400000 
C      15.00600000      29.22000000      -7.45100000 
C      14.51500000      28.59100000      -8.59600000 
C      14.16400000      30.06700000      -6.76700000 
C      13.24400000      28.83500000      -9.05800000 
C      12.86300000      30.28000000      -7.18600000 
C      12.42000000      29.67800000      -8.34400000 
O      11.14400000      29.89800000      -8.83500000 
H      16.67200000      27.95800000      -7.06600000 
H      16.51600000      29.29200000      -5.94400000 
H      15.12600000      27.88900000      -9.11000000 
H      14.51500000      30.55700000      -5.87900000 
H      12.87700000      28.37000000      -9.94600000 
H      12.21200000      30.92500000      -6.63500000 
H      10.56700000      30.32200000      -8.20800000 
N      23.36000000      15.80200000      -4.52200000 
C      23.09000000      15.78000000      -3.14700000 
C      21.78700000      15.05100000      -2.90300000 
O      20.79800000      15.21400000      -3.67700000 
H      22.69400000      16.26500000      -5.10500000 
H      23.88000000      15.26400000      -2.63000000 
C      23.07100000      17.15500000      -2.65100000 
O      23.02700000      16.96700000      -1.25700000 
C      21.93400000      17.93100000      -3.24900000 
H      24.01400000      17.61600000      -2.90000000 
H      22.22400000      17.25600000      -0.83200000 
H      21.97100000      18.95500000      -2.91300000 
H      22.01000000      17.93700000      -4.32300000 
H      20.98300000      17.53200000      -2.96200000 
N      18.96300000      14.16700000       0.18700000 
C      18.42200000      14.44600000       1.51400000 
C      17.88200000      13.16300000       2.14500000 
O      17.05300000      12.51100000       1.49800000 
C      17.37500000      15.53300000       1.40200000 
C      16.97900000      15.95300000       2.78300000 
C      16.13200000      17.20900000       2.71300000 
O      15.05600000      17.18900000       2.12900000 
N      16.53400000      18.25400000       3.37200000 
H      18.33000000      14.31300000      -0.57600000 
H      19.22900000      14.80700000       2.12800000 
H      17.81700000      16.36300000       0.86800000 
H      16.52400000      15.18400000       0.84300000 
H      16.38600000      15.18400000       3.25700000 
H      17.85000000      16.12600000       3.39800000 
H      17.37300000      18.24000000       3.92200000 
H      15.97500000      19.08800000       3.37800000 
N      15.80200000      23.36000000       4.52200000 
C      15.78000000      23.09000000       3.14700000 
C      15.05100000      21.78700000       2.90300000 
O      15.21400000      20.79800000       3.67700000 
H      16.26500000      22.69400000       5.10500000 
H      15.26400000      23.88000000       2.63000000 
C      17.15500000      23.07100000       2.65100000 
O      16.96700000      23.02700000       1.25700000 
C      17.93100000      21.93400000       3.24900000 
H      17.61600000      24.01400000       2.90000000 
H      17.25600000      22.22400000       0.83200000 
H      18.95500000      21.97100000       2.91300000 
H      17.93700000      22.01000000       4.32300000 
H      17.53200000      20.98300000       2.96200000 
N      14.21900000      21.79000000       1.89600000 
C      13.46100000      20.60900000       1.48700000 
C      13.77000000      20.21700000       0.09300000 
O      13.68700000      21.02200000      -0.82300000 
C      11.95700000      20.91700000       1.56700000 
C      11.09500000      19.72900000       1.31400000 
C      11.38200000      18.67400000       2.34900000 
C       9.61000000      20.10800000       1.46900000 
H      14.07600000      22.62900000       1.36900000 
H      13.72500000      19.82400000       2.16900000 
H      11.76300000      21.28900000       2.56400000 
H      11.74800000      21.71900000       0.87100000 
H      11.26200000      19.33400000       0.32000000 
H      10.68700000      17.85100000       2.25500000 
H      12.37700000      18.25700000       2.26800000 
H      11.27400000      19.09600000       3.33900000 
H       8.98200000      19.24700000       1.29400000 
H       9.43500000      20.46100000       2.47900000 
H       9.32800000      20.89200000       0.77700000 
N      14.16700000      18.96300000      -0.18700000 
C      14.44600000      18.42200000      -1.51400000 
C      13.16300000      17.88200000      -2.14500000 
O      12.51100000      17.05300000      -1.49800000 
C      15.53300000      17.37500000      -1.40200000 
C      15.95300000      16.97900000      -2.78300000 
C      17.20900000      16.13200000      -2.71300000 
O      17.18900000      15.05600000      -2.12900000 
N      18.25400000      16.53400000      -3.37200000 
H      14.31300000      18.33000000       0.57600000 
H      14.80700000      19.22900000      -2.12800000 
H      16.36300000      17.81700000      -0.86800000 
H      15.18400000      16.52400000      -0.84300000 
H      15.18400000      16.38600000      -3.25700000 
H      16.12600000      17.85000000      -3.39800000 
H      18.24000000      17.37300000      -3.92200000 
H      19.08800000      15.97500000      -3.37800000 
N       8.11600000      21.16700000      -7.67600000 
C       8.87400000      22.25600000      -7.13200000 
C       8.23800000      23.58300000      -7.37200000 
O       8.07200000      24.43800000      -6.46900000 
C      10.32400000      22.26400000      -7.71100000 
C      11.10600000      23.55400000      -7.38600000 
C      11.61500000      23.83400000      -6.12200000 
C      11.34200000      24.49700000      -8.36500000 
C      12.28300000      24.98800000      -5.75100000 
C      12.00700000      25.68700000      -8.02500000 
C      12.44300000      25.94600000      -6.72800000 
H       8.51500000      20.60400000      -8.40000000 
H       8.93400000      22.15700000      -6.06100000 
H      10.83600000      21.40000000      -7.32000000 
H      10.25500000      22.16800000      -8.78200000 
H      11.46800000      23.08300000      -5.36700000 
H      10.99300000      24.34900000      -9.36700000 
H      12.65100000      25.11600000      -4.75600000 
H      12.16000000      26.42800000      -8.78200000 
H      12.92000000      26.87000000      -6.51300000 
N      18.96300000      31.33300000      -0.18700000 
C      18.42200000      31.05400000      -1.51400000 
C      17.88200000      32.33700000      -2.14500000 
O      17.05300000      32.98900000      -1.49800000 
C      17.37500000      29.96700000      -1.40200000 
C      16.97900000      29.54700000      -2.78300000 
C      16.13200000      28.29100000      -2.71300000 
O      15.05600000      28.31100000      -2.12900000 
N      16.53400000      27.24600000      -3.37200000 
H      18.33000000      31.18700000       0.57600000 
H      19.22900000      30.69300000      -2.12800000 
H      17.81700000      29.13700000      -0.86800000 
H      16.52400000      30.31600000      -0.84300000 
H      16.38600000      30.31600000      -3.25700000 
H      17.85000000      29.37400000      -3.39800000 
H      17.37300000      27.26000000      -3.92200000 
H      15.97500000      26.41200000      -3.37800000 
H      14.99354497      19.33431153      -7.74873520 
H      14.05221128      26.22019669       0.11198577 
H      16.18655276      29.97207595      -9.38010352 
H      19.37629351      30.09158723      -7.04347019 
H      24.14309589      16.22095665      -4.66772628 
H      21.69911670      14.43154818      -2.12290003 
H      19.67224303      14.69941751       0.03368358 
H      18.20012119      12.87822511       3.04926886 
H      16.22095665      24.14309589       4.66772628 
H      12.87822511      18.20012119      -3.04926886 
H       7.92004073      20.58093294      -7.02168711 
H       7.92014724      23.82672987      -8.28827800 
H      19.67224303      30.80058249      -0.03368358 
H      18.20012119      32.62177489      -3.04926886 
