285
Properties=species:S:1:pos:R:3 pbc="F F F"
N      14.39400000      15.11600000     -11.78700000 
C      15.32200000      16.24800000     -11.45500000 
C      14.94000000      16.70200000     -10.06000000 
O      13.71700000      16.72900000      -9.80200000 
C      15.11600000      17.36400000     -12.46800000 
C      16.24500000      18.37800000     -12.46800000 
C      16.28300000      19.27900000     -13.70100000 
O      15.18300000      19.49900000     -14.30300000 
O      17.39700000      19.77300000     -14.03800000 
H      13.94600000      15.27100000     -12.67300000 
H      14.88700000      14.21500000     -11.84700000 
H      13.66300000      15.06300000     -11.09600000 
H      16.32700000      15.86900000     -11.48500000 
H      15.06700000      16.90700000     -13.44600000 
H      14.16500000      17.83500000     -12.28500000 
H      16.16800000      19.02500000     -11.60000000 
H      17.19600000      17.87500000     -12.40100000 
N      15.89000000      16.99400000      -9.21600000 
C      15.66300000      17.35200000      -7.83900000 
C      15.96300000      18.82300000      -7.66500000 
O      16.89400000      19.38400000      -8.27900000 
H      16.84700000      16.93200000      -9.50100000 
H      14.62700000      17.18500000      -7.61600000 
C      16.50300000      16.40600000      -6.97400000 
C      16.28000000      15.00600000      -7.45100000 
C      16.90900000      14.51500000      -8.59600000 
C      15.43300000      14.16400000      -6.76700000 
C      16.66500000      13.24400000      -9.05800000 
C      15.22000000      12.86300000      -7.18600000 
C      15.82200000      12.42000000      -8.34400000 
O      15.60200000      11.14400000      -8.83500000 
H      17.54200000      16.67200000      -7.06600000 
H      16.20800000      16.51600000      -5.94400000 
H      17.61100000      15.12600000      -9.11000000 
H      14.94300000      14.51500000      -5.87900000 
H      17.13000000      12.87700000      -9.94600000 
H      14.57500000      12.21200000      -6.63500000 
H      15.17800000      10.56700000      -8.20800000 
N      15.09700000      19.47600000      -6.86600000 
C      15.22200000      20.90700000      -6.61400000 
C      15.21700000      21.10800000      -5.10500000 
O      14.64000000      20.25300000      -4.38800000 
C      14.01800000      21.61800000      -7.22100000 
C      13.87900000      21.43100000      -8.68100000 
C      13.12500000      20.37900000      -9.19100000 
C      14.54800000      22.27900000      -9.54700000 
C      13.07500000      20.18100000     -10.54900000 
C      14.51700000      22.05200000     -10.91700000 
C      13.77900000      21.00400000     -11.41000000 
H      14.33900000      18.99000000      -6.43400000 
H      16.13900000      21.25800000      -7.04700000 
H      13.14100000      21.24000000      -6.71600000 
H      14.09100000      22.67100000      -6.98600000 
H      12.60600000      19.72700000      -8.52000000 
H      15.11800000      23.09300000      -9.14500000 
H      12.51200000      19.36500000     -10.94500000 
H      15.05700000      22.69700000     -11.58200000 
H      13.76900000      20.79900000     -12.45800000 
N      15.80200000      22.14000000      -4.52200000 
C      15.78000000      22.41000000      -3.14700000 
C      15.05100000      23.71300000      -2.90300000 
O      15.21400000      24.70200000      -3.67700000 
H      16.26500000      22.80600000      -5.10500000 
H      15.26400000      21.62000000      -2.63000000 
C      17.15500000      22.42900000      -2.65100000 
O      16.96700000      22.47300000      -1.25700000 
C      17.93100000      23.56600000      -3.24900000 
H      17.61600000      21.48600000      -2.90000000 
H      17.25600000      23.27600000      -0.83200000 
H      18.95500000      23.52900000      -2.91300000 
H      17.93700000      23.49000000      -4.32300000 
H      17.53200000      24.51700000      -2.96200000 
O      11.50200000      17.41000000     -13.60500000 
H      12.28600000      17.93100000     -13.76100000 
H      10.98900000      17.33400000     -14.40500000 
O      16.79500000      24.59800000      -6.21000000 
H      17.50700000      25.22900000      -6.28100000 
H      16.23800000      24.81600000      -5.45800000 
O      18.83800000      16.84500000      -9.23200000 
H      19.63600000      16.32700000      -9.19400000 
H      18.94200000      17.67000000      -8.76300000 
O      15.54400000      12.77300000     -12.21400000 
H      16.43000000      12.64100000     -12.53200000 
H      14.94100000      12.15000000     -12.60800000 
O      10.82500000      19.91300000     -16.74900000 
H      10.87100000      18.98200000     -16.55500000 
H       9.91300000      20.22200000     -16.77900000 
O      20.90200000      16.79500000      -6.21000000 
H      20.27100000      17.50700000      -6.28100000 
H      20.68400000      16.23800000      -5.45800000 
O      18.57200000      18.93500000      -5.16600000 
H      19.34900000      19.28800000      -4.74000000 
H      17.88300000      19.59100000      -5.19000000 
O       7.60000000      18.10400000     -13.50900000 
H       8.45600000      17.73900000     -13.70400000 
H       7.21400000      17.67500000     -12.73300000 
O      16.84500000      26.66200000      -9.23200000 
H      16.32700000      25.86400000      -9.19400000 
H      17.67000000      26.55800000      -8.76300000 
N      26.02400000      15.09700000      -6.86600000 
C      24.59300000      15.22200000      -6.61400000 
C      24.39200000      15.21700000      -5.10500000 
O      25.24700000      14.64000000      -4.38800000 
C      23.88200000      14.01800000      -7.22100000 
C      24.06900000      13.87900000      -8.68100000 
C      25.12100000      13.12500000      -9.19100000 
C      23.22100000      14.54800000      -9.54700000 
C      25.31900000      13.07500000     -10.54900000 
C      23.44800000      14.51700000     -10.91700000 
C      24.49600000      13.77900000     -11.41000000 
H      26.51000000      14.33900000      -6.43400000 
H      24.24200000      16.13900000      -7.04700000 
H      24.26000000      13.14100000      -6.71600000 
H      22.82900000      14.09100000      -6.98600000 
H      25.77300000      12.60600000      -8.52000000 
H      22.40700000      15.11800000      -9.14500000 
H      26.13500000      12.51200000     -10.94500000 
H      22.80300000      15.05700000     -11.58200000 
H      24.70100000      13.76900000     -12.45800000 
N      14.16700000      18.96300000      -0.18700000 
C      14.44600000      18.42200000      -1.51400000 
C      13.16300000      17.88200000      -2.14500000 
O      12.51100000      17.05300000      -1.49800000 
C      15.53300000      17.37500000      -1.40200000 
C      15.95300000      16.97900000      -2.78300000 
C      17.20900000      16.13200000      -2.71300000 
O      17.18900000      15.05600000      -2.12900000 
N      18.25400000      16.53400000      -3.37200000 
H      14.31300000      18.33000000       0.57600000 
H      14.80700000      19.22900000      -2.12800000 
H      16.36300000      17.81700000      -0.86800000 
H      15.18400000      16.52400000      -0.84300000 
H      15.18400000      16.38600000      -3.25700000 
H      16.12600000      17.85000000      -3.39800000 
H      18.24000000      17.37300000      -3.92200000 
H      19.08800000      15.97500000      -3.37800000 
N      12.88100000      18.27400000      -3.37200000 
C      11.60700000      18.07800000      -4.04600000 
C      11.94600000      17.42100000      -5.37200000 
O      12.89500000      17.89300000      -6.04100000 
C      10.86100000      19.38600000      -4.26100000 
C      10.40500000      19.93500000      -2.90900000 
C       9.60000000      19.14400000      -5.11700000 
C      10.11500000      21.45300000      -2.90200000 
H      13.50000000      18.92700000      -3.81600000 
H      11.01400000      17.42500000      -3.43100000 
H      11.52600000      20.08700000      -4.75200000 
H       9.52300000      19.39000000      -2.60000000 
H      11.17000000      19.74900000      -2.17000000 
H       9.00600000      20.04400000      -5.15800000 
H       9.83900000      18.85900000      -6.13100000 
H       9.00500000      18.36200000      -4.66400000 
H       9.76000000      21.76300000      -1.93000000 
H      11.02200000      21.99900000      -3.12700000 
H       9.37000000      21.71300000      -3.63900000 
N      11.22700000      16.38900000      -5.78200000 
C      11.42800000      15.73700000      -7.06400000 
C      10.46500000      16.25700000      -8.08600000 
O       9.24900000      16.17300000      -7.86100000 
C      11.18900000      14.23500000      -6.83700000 
C      11.89400000      13.39400000      -7.90600000 
C      11.69800000      11.87100000      -7.71200000 
N      12.47200000      11.18000000      -8.74900000 
C      12.34100000       9.90500000      -9.08400000 
N      11.44700000       9.15000000      -8.44700000 
N      13.07000000       9.42500000     -10.08600000 
H      10.42800000      16.08100000      -5.28200000 
H      12.44100000      15.91400000      -7.37200000 
H      11.59400000      13.98900000      -5.86800000 
H      10.12600000      14.04200000      -6.81700000 
H      11.52600000      13.66000000      -8.88800000 
H      12.95100000      13.61700000      -7.88200000 
H      12.04100000      11.57300000      -6.73500000 
H      10.65600000      11.61300000      -7.81400000 
H      13.18300000      11.70600000      -9.20400000 
H      11.18500000       9.38300000      -7.52000000 
H      11.34600000       8.19100000      -8.69300000 
H      13.69400000      10.01100000     -10.58800000 
H      13.02900000       8.46400000     -10.32800000 
N      10.98300000      16.76800000      -9.18800000 
C      10.10000000      17.13300000     -10.27300000 
C       9.90000000      18.60000000     -10.36200000 
O       9.61400000      19.29800000      -9.37400000 
H      11.97400000      16.80700000      -9.32700000 
H      10.51700000      16.76600000     -11.19600000 
H       9.14700000      16.66700000     -10.11300000 
N      10.07700000      19.15500000     -11.55300000 
C       9.93800000      20.60100000     -11.73600000 
C       8.53800000      21.09900000     -11.46100000 
O       8.42100000      22.17500000     -10.82300000 
H      10.41700000      18.60200000     -12.31500000 
H      10.56800000      21.11300000     -11.03300000 
C      10.32700000      20.88000000     -13.18500000 
C      10.14600000      22.31100000     -13.67600000 
C      11.44800000      23.04200000     -13.92900000 
N      11.92200000      23.75000000     -12.74700000 
C      12.15100000      25.04800000     -12.67500000 
N      11.90000000      25.86500000     -13.68200000 
N      12.66500000      25.55500000     -11.55900000 
H      11.35400000      20.56900000     -13.30700000 
H       9.73100000      20.21700000     -13.79600000 
H       9.61400000      22.29200000     -14.61300000 
H       9.54700000      22.89400000     -12.99500000 
H      12.21400000      22.35100000     -14.24200000 
H      11.31100000      23.75000000     -14.72400000 
H      12.14700000      23.19500000     -11.95200000 
H      11.53000000      25.57800000     -14.56500000 
H      12.14200000      26.82200000     -13.59800000 
H      12.88400000      24.97200000     -10.78600000 
H      12.83900000      26.52700000     -11.47000000 
N       8.11600000      21.16700000      -7.67600000 
C       8.87400000      22.25600000      -7.13200000 
C       8.23800000      23.58300000      -7.37200000 
O       8.07200000      24.43800000      -6.46900000 
C      10.32400000      22.26400000      -7.71100000 
C      11.10600000      23.55400000      -7.38600000 
C      11.61500000      23.83400000      -6.12200000 
C      11.34200000      24.49700000      -8.36500000 
C      12.28300000      24.98800000      -5.75100000 
C      12.00700000      25.68700000      -8.02500000 
C      12.44300000      25.94600000      -6.72800000 
H       8.51500000      20.60400000      -8.40000000 
H       8.93400000      22.15700000      -6.06100000 
H      10.83600000      21.40000000      -7.32000000 
H      10.25500000      22.16800000      -8.78200000 
H      11.46800000      23.08300000      -5.36700000 
H      10.99300000      24.34900000      -9.36700000 
H      12.65100000      25.11600000      -4.75600000 
H      12.16000000      26.42800000      -8.78200000 
H      12.92000000      26.87000000      -6.51300000 
N      24.33300000       8.11600000      -7.67600000 
C      23.24400000       8.87400000      -7.13200000 
C      21.91700000       8.23800000      -7.37200000 
O      21.06200000       8.07200000      -6.46900000 
C      23.23600000      10.32400000      -7.71100000 
C      21.94600000      11.10600000      -7.38600000 
C      21.66600000      11.61500000      -6.12200000 
C      21.00300000      11.34200000      -8.36500000 
C      20.51200000      12.28300000      -5.75100000 
C      19.81300000      12.00700000      -8.02500000 
C      19.55400000      12.44300000      -6.72800000 
H      24.89600000       8.51500000      -8.40000000 
H      23.34300000       8.93400000      -6.06100000 
H      24.10000000      10.83600000      -7.32000000 
H      23.33200000      10.25500000      -8.78200000 
H      22.41700000      11.46800000      -5.36700000 
H      21.15100000      10.99300000      -9.36700000 
H      20.38400000      12.65100000      -4.75600000 
H      19.07200000      12.16000000      -8.78200000 
H      18.63000000      12.92000000      -6.51300000 
N      19.33000000       7.02400000      -4.49000000 
C      17.99300000       7.65200000      -4.45300000 
C      16.93600000       6.54600000      -4.41700000 
O      15.92900000       6.66200000      -3.65300000 
H      19.92500000       7.21100000      -5.27100000 
H      17.88100000       8.20100000      -3.53600000 
C      17.69200000       8.60300000      -5.64100000 
C      16.23800000       9.12200000      -5.72500000 
C      15.85200000      10.17500000      -4.67400000 
N      14.38700000      10.38800000      -4.65700000 
C      13.70200000      11.34700000      -4.03300000 
N      14.28600000      12.28900000      -3.30200000 
N      12.37500000      11.39300000      -4.16800000 
H      18.38000000       9.43500000      -5.57800000 
H      17.91000000       8.06900000      -6.55600000 
H      16.12400000       9.55200000      -6.70700000 
H      15.55300000       8.29200000      -5.66200000 
H      16.18100000       9.86300000      -3.70300000 
H      16.34300000      11.11200000      -4.90200000 
H      13.81700000       9.71300000      -5.14000000 
H      15.11400000      12.05100000      -2.79800000 
H      13.70800000      12.98700000      -2.87100000 
H      11.95100000      10.66800000      -4.69300000 
H      11.80400000      12.05500000      -3.68400000 
H      14.43154818      23.80088330      -2.12290003 
H      26.16568847      14.99354497      -7.74873520 
H      23.59303538      15.66651843      -4.70551443 
H      14.69941751      19.67224303      -0.03368358 
H       7.74895721      20.57624648     -11.78370765 
H       7.92004073      20.58093294      -7.02168711 
H       7.92014724      23.82672987      -8.28827800 
H      24.91906706       7.92004073      -7.02168711 
H      21.67327013       7.92014724      -8.28827800 
H      19.80533307       7.28682894      -3.77237933 
H      17.04015055       5.73587296      -4.99392880 
