 303 
 
N                19.3400000000       -3.3100000000       18.3160000000
C                19.9620000000       -2.0410000000       18.6660000000
C                19.1150000000       -0.8540000000       18.1890000000
O                19.3830000000        0.2720000000       18.5990000000
C                21.4440000000       -1.9730000000       18.1790000000
C                21.5350000000       -2.0010000000       16.6630000000
C                22.1570000000       -0.7360000000       18.7480000000
H                19.9810000000       -3.8530000000       17.7020000000
H                19.1480000000       -3.8520000000       19.1820000000
H                18.4470000000       -3.1310000000       17.8130000000
H                19.9990000000       -1.9610000000       19.7520000000
H                21.9590000000       -2.8580000000       18.5530000000
H                22.5840000000       -1.9520000000       16.3690000000
H                21.0900000000       -2.9270000000       16.2980000000
H                20.9950000000       -1.1440000000       16.2590000000
H                23.1860000000       -0.7220000000       18.3870000000
H                21.6340000000        0.1600000000       18.4140000000
H                22.1450000000       -0.7890000000       19.8370000000
N                18.0960000000       -1.0860000000       17.3400000000
C                17.2000000000        0.0020000000       16.9570000000
C                16.3890000000        0.4390000000       18.1720000000
O                15.9040000000       -0.4110000000       18.9280000000
C                16.2120000000       -0.4390000000       15.8920000000
C                16.7700000000       -0.3330000000       14.4880000000
O                17.7620000000        0.3540000000       14.2350000000
N                16.1400000000       -1.0410000000       13.5680000000
H                17.8780000000       -1.9890000000       16.9190000000
H                17.8010000000        0.8240000000       16.5690000000
H                15.9420000000       -1.4800000000       16.0690000000
H                15.3240000000        0.1910000000       15.9490000000
H                16.4600000000       -1.0190000000       12.6000000000
H                15.3340000000       -1.6100000000       13.8260000000
N                16.2200000000        1.7410000000       18.3730000000
C                15.4860000000        2.2090000000       19.5540000000
C                13.9950000000        1.9420000000       19.4630000000
O                13.4140000000        1.8650000000       18.3800000000
C                15.7520000000        3.7210000000       19.5830000000
C                16.3320000000        4.0800000000       18.2720000000
C                16.6630000000        2.8350000000       17.4930000000
H                15.8940000000        1.7320000000       20.4450000000
H                14.8130000000        4.2510000000       19.7440000000
H                16.4520000000        3.9500000000       20.3860000000
H                15.6040000000        4.6760000000       17.7210000000
H                17.2390000000        4.6610000000       18.4400000000
H                16.1190000000        2.8150000000       16.5490000000
H                17.7350000000        2.7700000000       17.3070000000
N                13.3920000000        1.7780000000       20.6360000000
C                11.9510000000        1.7000000000       20.8090000000
C                11.4770000000        2.9720000000       21.5020000000
O                12.1490000000        3.4880000000       22.4050000000
C                11.5740000000        0.4950000000       21.6780000000
O                12.1760000000       -0.6950000000       21.1520000000
C                10.0530000000        0.3240000000       21.7230000000
H                13.8980000000        1.6930000000       21.5170000000
H                11.4610000000        1.6010000000       19.8410000000
H                11.9330000000        0.6550000000       22.6950000000
H                11.9360000000       -1.4660000000       21.7070000000
H                 9.7930000000       -0.5340000000       22.3420000000
H                 9.5900000000        1.2170000000       22.1430000000
H                 9.6660000000        0.1650000000       20.7170000000
N                10.3200000000        3.4720000000       21.0750000000
C                 9.6860000000        4.6510000000       21.6490000000
C                 8.2590000000        4.2650000000       22.0000000000
O                 7.6640000000        3.3970000000       21.3550000000
C                 9.7000000000        5.8270000000       20.6390000000
C                 8.6530000000        6.8730000000       21.0030000000
C                11.0920000000        6.4420000000       20.5410000000
H                 9.7830000000        3.0670000000       20.3080000000
H                10.2010000000        4.9690000000       22.5560000000
H                 9.4430000000        5.4400000000       19.6530000000
H                 8.6920000000        7.6820000000       20.2740000000
H                 7.6670000000        6.4080000000       20.9900000000
H                 8.8690000000        7.2590000000       21.9990000000
H                11.0670000000        7.2640000000       19.8250000000
H                11.3860000000        6.8130000000       21.5230000000
H                11.7950000000        5.6790000000       20.2070000000
N                 6.8320000000        2.0570000000       18.9780000000
C                 7.3430000000        2.0180000000       17.6180000000
C                 8.8240000000        1.6620000000       17.6260000000
O                 9.6040000000        2.2460000000       18.3900000000
C                 7.2160000000        3.3830000000       16.9300000000
C                 5.9290000000        4.1050000000       17.1990000000
C                 4.7990000000        3.8300000000       16.4520000000
C                 5.8540000000        5.0760000000       18.1810000000
C                 3.6150000000        4.5030000000       16.6840000000
C                 4.6690000000        5.7500000000       18.4210000000
C                 3.5510000000        5.4650000000       17.6620000000
H                 7.2730000000        2.7710000000       19.5570000000
H                 6.7760000000        1.2620000000       17.0750000000
H                 8.0290000000        4.0220000000       17.2760000000
H                 7.2900000000        3.2360000000       15.8530000000
H                 4.8420000000        3.0790000000       15.6770000000
H                 6.7300000000        5.3110000000       18.7670000000
H                 2.7390000000        4.2720000000       16.0960000000
H                 4.6190000000        6.4970000000       19.2000000000
H                 2.6280000000        5.9980000000       17.8370000000
N                 9.2120000000        0.7290000000       16.7560000000
C                10.6100000000        0.5260000000       16.4290000000
C                11.0120000000        1.6080000000       15.4330000000
O                10.3160000000        1.8330000000       14.4440000000
C                10.8130000000       -0.8480000000       15.7980000000
C                12.2460000000       -1.0840000000       15.3740000000
C                12.4980000000       -2.4370000000       14.7160000000
O                11.5970000000       -3.2980000000       14.7060000000
O                13.6240000000       -2.6330000000       14.2190000000
H                11.2290000000        0.5830000000       17.3240000000
H                10.5430000000       -1.6160000000       16.5230000000
H                10.1800000000       -0.9310000000       14.9140000000
H                12.5280000000       -0.3130000000       14.6570000000
H                12.8840000000       -1.0240000000       16.2560000000
H                 8.5760000000        0.1010000000       16.2640000000
N                12.1250000000        2.2700000000       15.6820000000
C                12.6580000000        3.2730000000       14.7710000000
C                13.8520000000        2.6890000000       14.0350000000
O                14.7520000000        2.1260000000       14.6620000000
C                13.0890000000        4.5000000000       15.5590000000
C                12.0370000000        5.0830000000       16.4820000000
C                12.6230000000        6.3140000000       17.1900000000
C                10.7710000000        5.4250000000       15.7130000000
H                12.6920000000        2.1350000000       16.5190000000
H                11.9040000000        3.5620000000       14.0390000000
H                13.9470000000        4.2280000000       16.1740000000
H                13.3700000000        5.2800000000       14.8510000000
H                11.7510000000        4.3520000000       17.2380000000
H                11.8680000000        6.7340000000       17.8540000000
H                13.4970000000        6.0100000000       17.7660000000
H                12.9100000000        7.0510000000       16.4400000000
H                10.0380000000        5.8410000000       16.4040000000
H                11.0110000000        6.1560000000       14.9410000000
H                10.3780000000        4.5170000000       15.2550000000
N                13.8630000000        2.8430000000       12.7090000000
C                14.8530000000        2.1640000000       11.8740000000
C                16.1310000000        3.0000000000       11.7630000000
O                16.5160000000        3.4760000000       10.6990000000
C                14.2660000000        1.8600000000       10.5020000000
C                13.0430000000        1.0060000000       10.5260000000
C                12.9840000000       -0.1480000000       11.2850000000
C                11.9480000000        1.3550000000        9.7670000000
C                11.8420000000       -0.9290000000       11.2770000000
C                10.8140000000        0.5670000000        9.7560000000
C                10.7690000000       -0.5710000000       10.5120000000
H                13.2060000000        3.4260000000       12.1910000000
H                15.1170000000        1.2250000000       12.3610000000
H                14.0000000000        2.8020000000       10.0220000000
H                15.0190000000        1.3400000000        9.9100000000
H                13.8320000000       -0.4410000000       11.8860000000
H                11.9770000000        2.2560000000        9.1730000000
H                11.7990000000       -1.8250000000       11.8780000000
H                 9.9650000000        0.8490000000        9.1520000000
H                 9.8830000000       -1.1880000000       10.5040000000
N                16.7990000000        3.1550000000       12.9050000000
C                18.0310000000        3.9170000000       12.9540000000
C                19.1260000000        3.2640000000       12.1270000000
O                20.0580000000        3.9480000000       11.7110000000
C                18.4810000000        4.0310000000       14.4070000000
H                16.5110000000        2.7660000000       13.8030000000
H                17.8620000000        4.9190000000       12.5590000000
H                19.4080000000        4.6040000000       14.4480000000
H                17.7050000000        4.5380000000       14.9800000000
H                18.6450000000        3.0300000000       14.8070000000
N                19.0230000000        1.9650000000       11.8530000000
C                20.0230000000        1.3230000000       11.0090000000
C                19.9560000000        1.7920000000        9.5570000000
O                20.9700000000        1.7550000000        8.8550000000
C                19.9180000000       -0.2020000000       11.1120000000
C                18.5460000000       -0.7500000000       10.7270000000
O                17.5380000000       -0.0250000000       10.7990000000
O                18.4800000000       -1.9450000000       10.3530000000
H                18.2820000000        1.3500000000       12.1900000000
H                21.0100000000        1.5980000000       11.3810000000
H                20.6540000000       -0.6510000000       10.4450000000
H                20.1180000000       -0.4990000000       12.1420000000
N                15.3820000000        8.9190000000       12.2740000000
C                15.0400000000        8.1940000000       13.4900000000
C                15.4280000000        8.9830000000       14.7310000000
O                14.6670000000        9.0310000000       15.6990000000
C                15.7280000000        6.8280000000       13.4960000000
H                16.0620000000        8.4530000000       11.6730000000
H                13.9620000000        8.0360000000       13.5100000000
H                15.4610000000        6.3000000000       14.4120000000
H                15.3950000000        6.2590000000       12.6280000000
H                16.8070000000        6.9740000000       13.4520000000
N                13.1530000000       10.1170000000       17.9290000000
C                13.5260000000        9.6250000000       19.2500000000
C                13.6870000000       10.7740000000       20.2320000000
O                13.1450000000       10.7410000000       21.3410000000
C                14.8190000000        8.8040000000       19.1620000000
C                15.1670000000        8.0660000000       20.4530000000
C                16.6490000000        7.6990000000       20.5630000000
N                17.4600000000        8.9090000000       20.5890000000
C                17.6030000000        9.6960000000       21.6500000000
N                17.0390000000        9.3650000000       22.8130000000
N                18.3200000000       10.8070000000       21.5520000000
H                13.8090000000        9.8770000000       17.1860000000
H                12.7360000000        8.9700000000       19.6170000000
H                14.7090000000        8.0600000000       18.3730000000
H                15.6450000000        9.4750000000       18.9290000000
H                14.9170000000        8.7030000000       21.3020000000
H                14.5900000000        7.1420000000       20.4980000000
H                16.8220000000        7.1420000000       21.4840000000
H                16.9440000000        7.0980000000       19.7020000000
H                17.9520000000        9.1700000000       19.7340000000
H                16.4960000000        8.5050000000       22.8900000000
H                17.1510000000        9.9720000000       23.6250000000
H                18.7590000000       11.0540000000       20.6650000000
H                18.4330000000       11.4140000000       22.3640000000
N                 9.9700000000        4.0770000000       10.6620000000
C                 9.6420000000        3.2240000000       11.7940000000
C                 8.3900000000        2.4230000000       11.5320000000
O                 7.7680000000        2.5240000000       10.4780000000
H                 9.2390000000        4.1430000000        9.9540000000
H                10.4640000000        2.5330000000       11.9820000000
H                 9.4840000000        3.8370000000       12.6810000000
N                 8.0140000000        1.6260000000       12.5340000000
C                 6.2900000000        0.5890000000       13.8720000000
O                 7.0660000000        0.5240000000       14.8210000000
C                 6.8070000000        0.8230000000       12.4590000000
C                 7.0880000000       -0.5120000000       11.7520000000
C                 5.8580000000       -1.3250000000       11.3620000000
C                 6.2680000000       -2.6200000000       10.6550000000
C                 5.0650000000       -3.4270000000       10.1840000000
N                 4.0190000000       -2.5840000000        9.5430000000
H                 8.5290000000        1.5200000000       13.4080000000
H                 6.0310000000        1.3490000000       11.9030000000
H                 7.6420000000       -0.3040000000       10.8370000000
H                 7.6880000000       -1.1320000000       12.4180000000
H                 5.2930000000       -1.5830000000       12.2570000000
H                 5.2360000000       -0.7420000000       10.6830000000
H                 6.8740000000       -2.3750000000        9.7830000000
H                 6.8410000000       -3.2380000000       11.3460000000
H                 5.3960000000       -4.1650000000        9.4540000000
H                 4.6150000000       -3.9270000000       11.0420000000
H                 3.2210000000       -3.1770000000        9.2390000000
H                 3.6730000000       -1.8720000000       10.2180000000
H                 4.4140000000       -2.0980000000        8.7130000000
N                 5.3110000000       -1.4960000000       16.8150000000
C                 4.7580000000       -3.4120000000       18.2890000000
O                 4.5260000000       -4.6190000000       18.1920000000
H                 5.8765550466       -0.8399566519       17.0594475703
C                 5.7750000000       -2.7680000000       17.3610000000
C                 7.0980000000       -2.5220000000       18.0880000000
C                 7.7130000000       -3.6880000000       18.8100000000
C                 9.0480000000       -3.2440000000       19.4310000000
C                 9.7370000000       -4.3670000000       20.1910000000
N                11.0350000000       -3.8980000000       20.7520000000
H                 5.3810000000       -0.7280000000       17.4820000000
H                 5.9500000000       -3.4800000000       16.5550000000
H                 7.8280000000       -2.1860000000       17.3510000000
H                 6.9320000000       -1.7420000000       18.8310000000
H                 7.0480000000       -4.0260000000       19.6040000000
H                 7.9010000000       -4.5020000000       18.1100000000
H                 9.7180000000       -2.9120000000       18.6380000000
H                 8.8630000000       -2.4270000000       20.1290000000
H                 9.1010000000       -4.6950000000       21.0130000000
H                 9.9310000000       -5.2000000000       19.5150000000
H                11.4990000000       -4.6720000000       21.2700000000
H                11.6610000000       -3.5830000000       19.9840000000
H                10.8740000000       -3.1040000000       21.4040000000
N                11.3810000000        6.6900000000       25.7650000000
C                12.1330000000        5.5900000000       25.1860000000
C                12.0590000000        4.3680000000       26.0900000000
O                12.2360000000        4.4830000000       27.3060000000
C                13.5840000000        6.0190000000       24.9670000000
C                14.4000000000        5.0000000000       24.2390000000
C                15.6870000000        5.5640000000       23.6800000000
O                15.9840000000        6.7480000000       23.8320000000
N                16.4640000000        4.7090000000       23.0320000000
H                11.8370000000        7.1200000000       26.5690000000
H                11.6980000000        5.3020000000       24.2290000000
H                13.5950000000        6.9380000000       24.3800000000
H                14.0510000000        6.1910000000       25.9370000000
H                14.6570000000        4.1950000000       24.9270000000
H                13.8160000000        4.6070000000       23.4070000000
H                16.1800000000        3.7340000000       22.9350000000
H                17.3470000000        5.0250000000       22.6300000000
O                18.4440000000        7.2200000000       17.2110000000
H                19.0590000000        7.7920000000       17.2130000000
H                17.7220000000        7.6400000000       17.3030000000
O                19.7120000000        5.4740000000       18.9730000000
H                20.3840000000        5.9780000000       18.9810000000
H                19.0350000000        5.9710000000       18.9790000000
O                19.0780000000        5.3780000000       21.7960000000
H                19.8640000000        5.6660000000       21.7280000000
H                18.6160000000        5.8000000000       21.2360000000
O                15.2050000000        1.9690000000       23.0200000000
H                15.7650000000        1.7510000000       23.6070000000
H                14.5550000000        2.3170000000       23.4220000000
O                15.4740000000       -4.0700000000       16.1150000000
H                16.1980000000       -3.6440000000       16.1220000000
H                14.8570000000       -3.5000000000       16.1150000000
H                 7.7918441273        4.7156467799       22.7607120812
H                 5.9489766209        2.2302718013       18.9622966637
H                19.0929376687        2.1271906884        9.1791500102
H                14.6406195649        9.0414471090       11.7786599592
H                16.3034319558        9.4652498626       14.7634647624
H                12.3555333522        9.7722017815       17.6941359239
H                14.2378644659       11.5707153349       19.9834179908
H                10.1277395958        4.9141297951       10.9523995973
H                 5.3086847404        0.4864143714       14.0347776093
H                 5.2819284559       -1.5472835753       15.9169327195
H                 4.2826532234       -2.8573256647       18.9719215356
H                11.2661047137        7.3337399555       25.1466166699
H                11.8663993331        3.4678922860       25.6992173415
