506
Properties=species:S:1:pos:R:3 pbc="F F F"
N       5.45300000      17.11800000       5.15000000 
C       4.37500000      16.10900000       5.16300000 
C       3.68500000      16.06000000       3.81000000 
O       3.37300000      14.96100000       3.30900000 
C       3.30600000      16.49700000       6.22700000 
C       2.39500000      15.30400000       6.43300000 
C       1.29300000      15.38900000       7.45000000 
O       1.29200000      16.34000000       8.26200000 
O       0.44100000      14.42600000       7.47800000 
H       5.38700000      17.91900000       5.74200000 
H       4.78400000      15.13500000       5.35600000 
H       3.81700000      16.74500000       7.14300000 
H       2.76600000      17.36200000       5.90200000 
H       1.95700000      14.98800000       5.49800000 
H       3.01000000      14.47000000       6.75600000 
N       3.39600000      17.21200000       3.22400000 
C       2.79100000      17.23700000       1.93800000 
C       3.69500000      16.56400000       0.92700000 
O       3.21100000      15.80800000       0.06100000 
C       2.57400000      18.71000000       1.51600000 
C       1.45900000      19.38800000       2.31800000 
C       1.37500000      20.82200000       1.90600000 
C       0.08700000      18.83700000       2.02400000 
H       3.64800000      18.07000000       3.66600000 
H       1.86600000      16.68900000       1.93100000 
H       3.50700000      19.24000000       1.64800000 
H       2.31700000      18.73600000       0.46500000 
H       1.67900000      19.31200000       3.36500000 
H       0.59100000      21.33600000       2.44900000 
H       2.30500000      21.35300000       2.08400000 
H       1.15200000      20.89100000       0.84800000 
H      -0.65200000      19.37000000       2.60700000 
H      -0.15000000      18.96900000       0.98100000 
H      -0.00900000      17.78600000       2.26100000 
N       4.98600000      16.84800000       0.94100000 
C       5.87600000      16.26500000      -0.05700000 
C       5.97400000      14.78300000       0.12500000 
O       5.95600000      13.95100000      -0.84500000 
C       7.25600000      16.86500000       0.07500000 
C       8.22800000      16.47700000      -0.98000000 
O       9.31500000      15.92600000      -0.68200000 
N       7.83900000      16.70700000      -2.17400000 
H       5.36100000      17.48200000       1.62200000 
H       5.45700000      16.42900000      -1.03600000 
H       7.13900000      17.94100000       0.04800000 
H       7.66600000      16.61500000       1.04300000 
H       8.26300000      16.29000000      -2.97800000 
H       6.97900000      17.18800000      -2.33000000 
N       6.03600000      14.30200000       1.36700000 
C       6.06400000      12.85700000       1.58400000 
C       4.80100000      12.18700000       1.12900000 
O       4.81700000      11.03800000       0.64000000 
C       6.21800000      12.41800000       3.06000000 
C       7.57800000      12.71200000       3.64600000 
C       7.67700000      12.39000000       5.12200000 
O       6.61500000      12.04800000       5.73700000 
O       8.82900000      12.50900000       5.64900000 
H       6.08600000      14.91400000       2.16000000 
H       6.86100000      12.43300000       0.99800000 
H       5.45400000      12.90400000       3.64400000 
H       6.03500000      11.35400000       3.08500000 
H       8.35100000      12.16000000       3.12900000 
H       7.80800000      13.76100000       3.54100000 
N       3.64900000      12.81200000       1.34100000 
C       2.36600000      12.26400000       0.93000000 
C       2.32500000      12.13100000      -0.59900000 
O       1.85200000      11.09500000      -1.11300000 
C       1.25900000      13.13700000       1.54300000 
H       3.64100000      13.68600000       1.82600000 
H       2.27700000      11.25500000       1.29200000 
H       0.29300000      12.71700000       1.31800000 
H       1.39400000      13.16100000       2.61200000 
H       1.31900000      14.14300000       1.15900000 
N       2.82300000      13.15500000      -1.35900000 
C       2.86500000      13.08300000      -2.79700000 
C       3.73100000      11.98300000      -3.27100000 
O       3.39800000      11.26100000      -4.23000000 
C       3.23200000      14.40100000      -3.37200000 
C       2.19200000      15.51600000      -3.12000000 
C       2.92000000      16.75300000      -3.56600000 
C       0.92300000      15.26500000      -3.92900000 
H       3.20100000      13.95100000      -0.89100000 
H       1.88300000      12.81200000      -3.15000000 
H       4.18600000      14.71000000      -2.96100000 
H       3.35600000      14.29800000      -4.44100000 
H       1.96500000      15.57200000      -2.06900000 
H       2.30300000      17.63600000      -3.46200000 
H       3.81900000      16.90200000      -2.98500000 
H       3.20000000      16.66200000      -4.60700000 
H       0.23000000      16.08700000      -3.81200000 
H       1.16300000      15.17000000      -4.98100000 
H       0.41900000      14.35900000      -3.61500000 
N       4.92700000      11.79700000      -2.65300000 
C       5.83900000      10.69400000      -3.01100000 
C       5.24400000       9.34200000      -2.70800000 
O       5.37200000       8.42800000      -3.55700000 
C       7.22800000      10.88800000      -2.40500000 
C       7.92100000      12.12500000      -2.93100000 
C       9.31200000      12.23800000      -2.42300000 
O       9.65600000      11.55600000      -1.42800000 
O      10.10100000      13.10000000      -2.96100000 
H       5.19000000      12.41000000      -1.91000000 
H       5.93800000      10.69600000      -4.08200000 
H       7.14600000      10.93800000      -1.32900000 
H       7.81500000      10.01400000      -2.64500000 
H       7.94500000      12.11200000      -4.01100000 
H       7.38900000      13.02100000      -2.63600000 
N       4.54400000       9.16000000      -1.62300000 
C       3.84700000       7.88200000      -1.36000000 
C       2.78500000       7.65000000      -2.41400000 
O       2.62800000       6.50300000      -2.92200000 
C       3.25500000       7.94500000       0.05800000 
C       2.27500000       6.75800000       0.43100000 
C       3.12400000       5.50600000       0.60000000 
C       1.38200000       7.11600000       1.61100000 
H       4.46800000       9.88700000      -0.93700000 
H       4.54400000       7.07100000      -1.46500000 
H       4.07400000       7.97200000       0.76000000 
H       2.71300000       8.87600000       0.13600000 
H       1.62600000       6.60200000      -0.42100000 
H       2.52300000       4.63700000       0.81000000 
H       3.68300000       5.31200000      -0.30100000 
H       3.82500000       5.63800000       1.41400000 
H       0.70800000       6.30300000       1.83500000 
H       1.95900000       7.32000000       2.49900000 
H       0.79400000       7.99000000       1.36700000 
N       1.97000000       8.62400000      -2.80400000 
C       0.92900000       8.42500000      -3.78700000 
C       1.58900000       8.03500000      -5.11100000 
O       1.04300000       7.15300000      -5.81200000 
C       0.08700000       9.72800000      -3.82600000 
C      -1.10500000       9.66900000      -4.79400000 
C      -1.74600000      11.07500000      -4.87900000 
C      -2.87300000      11.18000000      -5.88300000 
N      -4.07800000      10.49100000      -5.34200000 
H       2.04100000       9.52500000      -2.37600000 
H       0.31700000       7.58800000      -3.51300000 
H      -0.26700000       9.89200000      -2.82000000 
H       0.74500000      10.54100000      -4.08600000 
H      -0.77700000       9.37600000      -5.78100000 
H      -1.81000000       8.93400000      -4.46400000 
H      -2.10900000      11.37300000      -3.90400000 
H      -0.97800000      11.77800000      -5.16700000 
H      -3.15000000      12.20400000      -6.06400000 
H      -2.63000000      10.70200000      -6.81600000 
H      -4.86000000      10.56900000      -5.96700000 
H      -3.86100000       9.49900000      -5.24300000 
H      -4.34400000      10.87900000      -4.45700000 
N       2.69900000       8.64200000      -5.54600000 
C       3.31500000       8.25800000      -6.77500000 
C       3.86200000       6.85900000      -6.66500000 
O       3.83600000       6.15400000      -7.68500000 
C       4.48900000       9.11800000      -7.06600000 
C       4.09200000      10.46900000      -7.56200000 
O       2.90800000      10.67600000      -7.92100000 
O       5.05800000      11.30800000      -7.58700000 
H       3.07100000       9.40700000      -5.01800000 
H       2.61300000       8.26200000      -7.58300000 
H       5.10700000       9.23000000      -6.18900000 
H       5.09600000       8.66100000      -7.83600000 
N       4.43700000       6.43600000      -5.54500000 
C       5.02100000       5.12100000      -5.48600000 
C       3.97300000       4.04400000      -5.69000000 
O       4.32400000       2.93200000      -6.10000000 
C       5.75800000       4.93400000      -4.18800000 
H       4.50000000       7.03600000      -4.74800000 
H       5.70400000       5.00600000      -6.30500000 
H       6.17100000       3.94300000      -4.13900000 
H       6.56100000       5.65100000      -4.12500000 
H       5.08500000       5.08900000      -3.35700000 
N       2.70200000       4.31800000      -5.40000000 
C       1.64100000       3.29500000      -5.58100000 
C       1.08700000       3.48100000      -6.96100000 
O       1.12000000       2.59500000      -7.82200000 
C       0.67700000       3.43300000      -4.43200000 
C       1.49200000       3.36400000      -3.16200000 
C       0.74100000       3.01100000      -1.92600000 
O       1.27500000       2.27300000      -1.05600000 
N      -0.47700000       3.52400000      -1.74800000 
H       2.46700000       5.19600000      -4.99500000 
H       2.12200000       2.33600000      -5.55000000 
H       0.11600000       4.34500000      -4.49300000 
H      -0.03100000       2.61400000      -4.47700000 
H       2.27700000       2.63300000      -3.26200000 
H       1.96800000       4.31800000      -2.98300000 
H      -0.90600000       4.08200000      -2.45200000 
H      -1.04300000       3.11600000      -1.02700000 
O       9.08400000      15.33700000      -4.13900000 
H       9.29300000      14.41400000      -3.87400000 
H       9.74000000      15.86600000      -3.68900000 
O       7.47900000      11.44900000      -6.68500000 
H       8.04100000      11.68900000      -7.41600000 
H       6.57700000      11.22600000      -6.99500000 
O       9.03000000       6.69300000      -1.35000000 
H       9.75000000       6.09100000      -1.18700000 
H       8.93400000       6.94000000      -2.27300000 
O       8.31100000       7.67300000      -4.09200000 
H       8.74900000       8.44000000      -4.48700000 
H       7.37900000       7.84300000      -3.94400000 
O       9.38400000       9.85800000      -5.20000000 
H      10.29100000       9.93300000      -5.47000000 
H       8.78000000      10.43300000      -5.68200000 
O      12.29600000      14.23300000      -2.01600000 
H      12.41800000      14.47200000      -1.10500000 
H      11.44700000      13.80300000      -2.20400000 
O       6.69300000       9.03000000       1.35000000 
H       6.09100000       9.75000000       1.18700000 
H       6.94000000       8.93400000       2.27300000 
O       7.34000000      14.96000000      -9.59600000 
H       7.91200000      15.26800000      -8.88800000 
H       6.66000000      14.37700000      -9.27900000 
O       5.71900000       1.44400000      -4.40600000 
H       6.35500000       0.82000000      -4.74200000 
H       5.39600000       2.00100000      -5.11800000 
O       1.44400000       5.71900000       4.40600000 
H       0.82000000       6.35500000       4.74200000 
H       2.00100000       5.39600000       5.11800000 
N      11.22700000      16.38900000      -5.78200000 
C      11.42800000      15.73700000      -7.06400000 
C      10.46500000      16.25700000      -8.08600000 
O       9.24900000      16.17300000      -7.86100000 
C      11.18900000      14.23500000      -6.83700000 
C      11.89400000      13.39400000      -7.90600000 
C      11.69800000      11.87100000      -7.71200000 
N      12.47200000      11.18000000      -8.74900000 
C      12.34100000       9.90500000      -9.08400000 
N      11.44700000       9.15000000      -8.44700000 
N      13.07000000       9.42500000     -10.08600000 
H      10.42800000      16.08100000      -5.28200000 
H      12.44100000      15.91400000      -7.37200000 
H      11.59400000      13.98900000      -5.86800000 
H      10.12600000      14.04200000      -6.81700000 
H      11.52600000      13.66000000      -8.88800000 
H      12.95100000      13.61700000      -7.88200000 
H      12.04100000      11.57300000      -6.73500000 
H      10.65600000      11.61300000      -7.81400000 
H      13.18300000      11.70600000      -9.20400000 
H      11.18500000       9.38300000      -7.52000000 
H      11.34600000       8.19100000      -8.69300000 
H      13.69400000      10.01100000     -10.58800000 
H      13.02900000       8.46400000     -10.32800000 
N       6.34800000      19.92800000      -9.48100000 
C       6.10100000      19.90800000      -8.04800000 
C       6.85000000      20.98400000      -7.30600000 
O       6.30700000      21.63600000      -6.36700000 
C       6.46600000      18.52800000      -7.49700000 
C       6.06500000      18.25800000      -6.02000000 
C       6.45000000      16.81900000      -5.59200000 
N       5.46200000      15.94500000      -6.28300000 
C       5.64300000      14.65000000      -6.38900000 
N       6.78900000      14.15800000      -5.96600000 
N       4.72300000      13.87600000      -6.94100000 
H       6.79500000      19.15400000      -9.92200000 
H       5.05700000      20.10300000      -7.86900000 
H       5.98000000      17.79600000      -8.12800000 
H       7.53000000      18.37800000      -7.60500000 
H       6.57500000      18.96000000      -5.37700000 
H       5.00200000      18.40200000      -5.88600000 
H       7.44300000      16.59300000      -5.93400000 
H       6.37200000      16.68500000      -4.52600000 
H       4.61700000      16.34600000      -6.64800000 
H       7.46600000      14.72200000      -5.50900000 
H       7.00000000      13.18600000      -6.07000000 
H       3.85500000      14.26100000      -7.25000000 
H       4.88600000      12.89900000      -7.13700000 
N      14.30200000       6.03600000      -1.36700000 
C      12.85700000       6.06400000      -1.58400000 
C      12.18700000       4.80100000      -1.12900000 
O      11.03800000       4.81700000      -0.64000000 
C      12.41800000       6.21800000      -3.06000000 
C      12.71200000       7.57800000      -3.64600000 
C      12.39000000       7.67700000      -5.12200000 
O      12.04800000       6.61500000      -5.73700000 
O      12.50900000       8.82900000      -5.64900000 
H      14.91400000       6.08600000      -2.16000000 
H      12.43300000       6.86100000      -0.99800000 
H      12.90400000       5.45400000      -3.64400000 
H      11.35400000       6.03500000      -3.08500000 
H      12.16000000       8.35100000      -3.12900000 
H      13.76100000       7.80800000      -3.54100000 
N      11.79700000       4.92700000       2.65300000 
C      10.69400000       5.83900000       3.01100000 
C       9.34200000       5.24400000       2.70800000 
O       8.42800000       5.37200000       3.55700000 
C      10.88800000       7.22800000       2.40500000 
C      12.12500000       7.92100000       2.93100000 
C      12.23800000       9.31200000       2.42300000 
O      11.55600000       9.65600000       1.42800000 
O      13.10000000      10.10100000       2.96100000 
H      12.41000000       5.19000000       1.91000000 
H      10.69600000       5.93800000       4.08200000 
H      10.93800000       7.14600000       1.32900000 
H      10.01400000       7.81500000       2.64500000 
H      12.11200000       7.94500000       4.01100000 
H      13.02100000       7.38900000       2.63600000 
N       9.16000000       4.54400000       1.62300000 
C       7.88200000       3.84700000       1.36000000 
C       7.65000000       2.78500000       2.41400000 
O       6.50300000       2.62800000       2.92200000 
C       7.94500000       3.25500000      -0.05800000 
C       6.75800000       2.27500000      -0.43100000 
C       5.50600000       3.12400000      -0.60000000 
C       7.11600000       1.38200000      -1.61100000 
H       9.88700000       4.46800000       0.93700000 
H       7.07100000       4.54400000       1.46500000 
H       7.97200000       4.07400000      -0.76000000 
H       8.87600000       2.71300000      -0.13600000 
H       6.60200000       1.62600000       0.42100000 
H       4.63700000       2.52300000      -0.81000000 
H       5.31200000       3.68300000       0.30100000 
H       5.63800000       3.82500000      -1.41400000 
H       6.30300000       0.70800000      -1.83500000 
H       7.32000000       1.95900000      -2.49900000 
H       7.99000000       0.79400000      -1.36700000 
N       6.43600000       4.43700000       5.54500000 
C       5.12100000       5.02100000       5.48600000 
C       4.04400000       3.97300000       5.69000000 
O       2.93200000       4.32400000       6.10000000 
C       4.93400000       5.75800000       4.18800000 
H       7.03600000       4.50000000       4.74800000 
H       5.00600000       5.70400000       6.30500000 
H       3.94300000       6.17100000       4.13900000 
H       5.65100000       6.56100000       4.12500000 
H       5.08900000       5.08500000       3.35700000 
N       4.31800000       2.70200000       5.40000000 
C       3.29500000       1.64100000       5.58100000 
C       3.48100000       1.08700000       6.96100000 
O       2.59500000       1.12000000       7.82200000 
C       3.43300000       0.67700000       4.43200000 
C       3.36400000       1.49200000       3.16200000 
C       3.01100000       0.74100000       1.92600000 
O       2.27300000       1.27500000       1.05600000 
N       3.52400000      -0.47700000       1.74800000 
H       5.19600000       2.46700000       4.99500000 
H       2.33600000       2.12200000       5.55000000 
H       4.34500000       0.11600000       4.49300000 
H       2.61400000      -0.03100000       4.47700000 
H       2.63300000       2.27700000       3.26200000 
H       4.31800000       1.96800000       2.98300000 
H       4.08200000      -0.90600000       2.45200000 
H       3.11600000      -1.04300000       1.02700000 
N      -3.64900000      12.81200000      -1.34100000 
C      -2.36600000      12.26400000      -0.93000000 
C      -2.32500000      12.13100000       0.59900000 
O      -1.85200000      11.09500000       1.11300000 
C      -1.25900000      13.13700000      -1.54300000 
H      -3.64100000      13.68600000      -1.82600000 
H      -2.27700000      11.25500000      -1.29200000 
H      -0.29300000      12.71700000      -1.31800000 
H      -1.39400000      13.16100000      -2.61200000 
H      -1.31900000      14.14300000      -1.15900000 
N      -2.82300000      13.15500000       1.35900000 
C      -2.86500000      13.08300000       2.79700000 
C      -3.73100000      11.98300000       3.27100000 
O      -3.39800000      11.26100000       4.23000000 
C      -3.23200000      14.40100000       3.37200000 
C      -2.19200000      15.51600000       3.12000000 
C      -2.92000000      16.75300000       3.56600000 
C      -0.92300000      15.26500000       3.92900000 
H      -3.20100000      13.95100000       0.89100000 
H      -1.88300000      12.81200000       3.15000000 
H      -4.18600000      14.71000000       2.96100000 
H      -3.35600000      14.29800000       4.44100000 
H      -1.96500000      15.57200000       2.06900000 
H      -2.30300000      17.63600000       3.46200000 
H      -3.81900000      16.90200000       2.98500000 
H      -3.20000000      16.66200000       4.60700000 
H      -0.23000000      16.08700000       3.81200000 
H      -1.16300000      15.17000000       4.98100000 
H      -0.41900000      14.35900000       3.61500000 
N      -4.54400000       9.16000000       1.62300000 
C      -3.84700000       7.88200000       1.36000000 
C      -2.78500000       7.65000000       2.41400000 
O      -2.62800000       6.50300000       2.92200000 
C      -3.25500000       7.94500000      -0.05800000 
C      -2.27500000       6.75800000      -0.43100000 
C      -3.12400000       5.50600000      -0.60000000 
C      -1.38200000       7.11600000      -1.61100000 
H      -4.46800000       9.88700000       0.93700000 
H      -4.54400000       7.07100000       1.46500000 
H      -4.07400000       7.97200000      -0.76000000 
H      -2.71300000       8.87600000      -0.13600000 
H      -1.62600000       6.60200000       0.42100000 
H      -2.52300000       4.63700000      -0.81000000 
H      -3.68300000       5.31200000       0.30100000 
H      -3.82500000       5.63800000      -1.41400000 
H      -0.70800000       6.30300000      -1.83500000 
H      -1.95900000       7.32000000      -2.49900000 
H      -0.79400000       7.99000000      -1.36700000 
N      -1.97000000       8.62400000       2.80400000 
C      -0.92900000       8.42500000       3.78700000 
C      -1.58900000       8.03500000       5.11100000 
O      -1.04300000       7.15300000       5.81200000 
C      -0.08700000       9.72800000       3.82600000 
C       1.10500000       9.66900000       4.79400000 
C       1.74600000      11.07500000       4.87900000 
C       2.87300000      11.18000000       5.88300000 
N       4.07800000      10.49100000       5.34200000 
H      -2.04100000       9.52500000       2.37600000 
H      -0.31700000       7.58800000       3.51300000 
H       0.26700000       9.89200000       2.82000000 
H      -0.74500000      10.54100000       4.08600000 
H       0.77700000       9.37600000       5.78100000 
H       1.81000000       8.93400000       4.46400000 
H       2.10900000      11.37300000       3.90400000 
H       0.97800000      11.77800000       5.16700000 
H       3.15000000      12.20400000       6.06400000 
H       2.63000000      10.70200000       6.81600000 
H       4.86000000      10.56900000       5.96700000 
H       3.86100000       9.49900000       5.24300000 
H       4.34400000      10.87900000       4.45700000 
N      -2.70200000       4.31800000       5.40000000 
C      -1.64100000       3.29500000       5.58100000 
C      -1.08700000       3.48100000       6.96100000 
O      -1.12000000       2.59500000       7.82200000 
C      -0.67700000       3.43300000       4.43200000 
C      -1.49200000       3.36400000       3.16200000 
C      -0.74100000       3.01100000       1.92600000 
O      -1.27500000       2.27300000       1.05600000 
N       0.47700000       3.52400000       1.74800000 
H      -2.46700000       5.19600000       4.99500000 
H      -2.12200000       2.33600000       5.55000000 
H      -0.11600000       4.34500000       4.49300000 
H       0.03100000       2.61400000       4.47700000 
H      -2.27700000       2.63300000       3.26200000 
H      -1.96800000       4.31800000       2.98300000 
H       0.90600000       4.08200000       2.45200000 
H       1.04300000       3.11600000       1.02700000 
N       8.62400000      -1.97000000      -2.80400000 
C       8.42500000      -0.92900000      -3.78700000 
C       8.03500000      -1.58900000      -5.11100000 
O       7.15300000      -1.04300000      -5.81200000 
C       9.72800000      -0.08700000      -3.82600000 
C       9.66900000       1.10500000      -4.79400000 
C      11.07500000       1.74600000      -4.87900000 
C      11.18000000       2.87300000      -5.88300000 
N      10.49100000       4.07800000      -5.34200000 
H       9.52500000      -2.04100000      -2.37600000 
H       7.58800000      -0.31700000      -3.51300000 
H       9.89200000       0.26700000      -2.82000000 
H      10.54100000      -0.74500000      -4.08600000 
H       9.37600000       0.77700000      -5.78100000 
H       8.93400000       1.81000000      -4.46400000 
H      11.37300000       2.10900000      -3.90400000 
H      11.77800000       0.97800000      -5.16700000 
H      12.20400000       3.15000000      -6.06400000 
H      10.70200000       2.63000000      -6.81600000 
H      10.56900000       4.86000000      -5.96700000 
H       9.49900000       3.86100000      -5.24300000 
H      10.87900000       4.34400000      -4.45700000 
N       4.31800000      -2.70200000      -5.40000000 
C       3.29500000      -1.64100000      -5.58100000 
C       3.48100000      -1.08700000      -6.96100000 
O       2.59500000      -1.12000000      -7.82200000 
C       3.43300000      -0.67700000      -4.43200000 
C       3.36400000      -1.49200000      -3.16200000 
C       3.01100000      -0.74100000      -1.92600000 
O       2.27300000      -1.27500000      -1.05600000 
N       3.52400000       0.47700000      -1.74800000 
H       5.19600000      -2.46700000      -4.99500000 
H       2.33600000      -2.12200000      -5.55000000 
H       4.34500000      -0.11600000      -4.49300000 
H       2.61400000       0.03100000      -4.47700000 
H       2.63300000      -2.27700000      -3.26200000 
H       4.31800000      -1.96800000      -2.98300000 
H       4.08200000       0.90600000      -2.45200000 
H       3.11600000       1.04300000      -1.02700000 
N       4.70200000      -0.62500000      -7.16900000 
C       5.31500000      -0.24700000      -8.43200000 
C       5.57600000       1.26400000      -8.46100000 
O       4.83200000       2.02500000      -9.11600000 
C       4.55300000      -0.74000000      -9.64700000 
H       5.37700000      -0.76400000      -6.44800000 
H       6.28600000      -0.71900000      -8.42700000 
H       5.15200000      -0.52900000     -10.52500000 
H       4.38900000      -1.79700000      -9.59600000 
H       3.60800000      -0.24400000      -9.74700000 
N       6.64800000       1.73400000      -7.81300000 
C       7.02200000       3.12800000      -7.94700000 
C       7.85200000       3.70500000      -6.83100000 
O       8.35300000       4.84400000      -7.03600000 
O       7.97800000       3.07300000      -5.75100000 
H       7.19600000       1.13300000      -7.24000000 
H       7.56100000       3.28100000      -8.87100000 
H       6.11500000       3.70300000      -8.01300000 
H       6.22956179      16.73106678       5.38923728 
H       0.66779711       4.35165596      -7.21834634 
H      11.93924397      16.23765457      -5.25303584 
H      10.80641898      16.66379233      -8.93332112 
H       5.56587986      20.00479214      -9.91962405 
H       7.79585274      21.19544353      -7.55228078 
H      14.54215333       6.73445512      -0.85271718 
H      12.66107022       3.92468887      -1.21465186 
H      12.33525285       4.81244198       3.36515190 
H       8.40640375       2.20279773       2.71215078 
H       6.90627489       4.82216900       6.20869147 
H       4.35165596       0.66779711       7.21834634 
H      -4.05826759      12.23435607      -1.89672253 
H      -4.60548722      11.80516210       2.81972871 
H      -5.42728776       9.00884788       1.70640123 
H      -2.43636224       8.48179222       5.39797378 
H      -3.34684610       3.99050880       4.86434804 
H      -0.66779711       4.35165596       7.21834634 
H       8.04824322      -1.85338509      -2.12216051 
H       8.48179222      -2.43636224      -5.39797378 
H       3.99050880      -3.34684610      -4.86434804 
