 67 
 
N                 4.3600000000       -0.1080000000        3.1750000000
C                 3.9490000000       -1.4580000000        2.8140000000
C                 2.6290000000       -1.8890000000        3.4390000000
O                 2.0890000000       -2.9220000000        3.0420000000
C                 5.0470000000       -2.4520000000        3.2270000000
O                 5.3610000000       -2.2430000000        4.6120000000
C                 6.2870000000       -2.2650000000        2.3570000000
H                 4.8910000000       -0.0480000000        4.0440000000
H                 3.8200000000       -1.5010000000        1.7320000000
H                 4.7080000000       -3.4790000000        3.0900000000
H                 6.0600000000       -2.8690000000        4.8950000000
H                 7.0610000000       -2.9720000000        2.6550000000
H                 6.0370000000       -2.4350000000        1.3100000000
H                 6.6710000000       -1.2510000000        2.4690000000
N                 2.0870000000       -1.1450000000        4.3960000000
C                 0.8600000000       -1.5650000000        5.0310000000
C                 0.6020000000       -0.8320000000        6.3250000000
O                 1.3070000000        0.1220000000        6.6760000000
H                 2.4720000000       -0.2660000000        4.7410000000
H                 0.0230000000       -1.3780000000        4.3580000000
H                 0.9120000000       -2.6320000000        5.2450000000
N                -0.4000000000       -1.2820000000        7.0760000000
C                -0.7090000000       -0.6320000000        8.3550000000
C                 0.4700000000       -0.7050000000        9.3140000000
O                 1.2210000000       -1.6850000000        9.3440000000
C                -1.9060000000       -1.4310000000        8.8830000000
C                -2.4510000000       -2.1700000000        7.7030000000
C                -1.3200000000       -2.3880000000        6.7540000000
H                -0.9960000000        0.4080000000        8.1970000000
H                -1.5730000000       -2.1250000000        9.6550000000
H                -2.6520000000       -0.7490000000        9.2910000000
H                -2.8600000000       -3.1250000000        8.0330000000
H                -3.2320000000       -1.5730000000        7.2320000000
H                -0.8450000000       -3.3530000000        6.9300000000
H                -1.6610000000       -2.3230000000        5.7210000000
N                -2.1420000000        0.3190000000        3.3900000000
C                -1.0290000000        0.4340000000        2.4570000000
C                -1.2090000000        1.7190000000        1.6640000000
O                -2.2940000000        1.9860000000        1.1380000000
C                -1.0270000000       -0.7710000000        1.5180000000
C                 0.1670000000       -0.8030000000        0.5890000000
C                 0.1060000000       -2.0780000000       -0.2840000000
C                 1.1310000000       -2.0460000000       -1.4050000000
N                 1.6330000000       -3.4160000000       -1.7360000000
H                -2.8160000000       -0.4090000000        3.1520000000
H                -0.0730000000        0.4580000000        2.9810000000
H                -1.0120000000       -1.6830000000        2.1150000000
H                -1.9280000000       -0.7420000000        0.9050000000
H                 0.1520000000        0.0710000000       -0.0620000000
H                 1.0880000000       -0.8190000000        1.1710000000
H                 0.3090000000       -2.9500000000        0.3380000000
H                -0.8850000000       -2.1610000000       -0.7310000000
H                 0.6730000000       -1.6250000000       -2.3000000000
H                 1.9800000000       -1.4360000000       -1.0990000000
H                 2.3320000000       -3.3630000000       -2.5050000000
H                 2.0820000000       -3.8420000000       -0.9000000000
H                 0.8430000000       -4.0210000000       -2.0390000000
O                -0.0380000000       -4.6640000000        3.3180000000
H                 0.6360000000       -4.1630000000        3.3180000000
H                -0.7130000000       -4.1640000000        3.3180000000
O                 3.3270000000       -4.5990000000        0.7780000000
H                 4.0070000000       -4.1050000000        0.7770000000
H                 2.6710000000       -4.1090000000        0.9650000000
H                 4.8815693925        0.2312554137        2.5247145757
H                 0.6523643825        0.0525743981        9.9407569412
H                -1.8271520930        0.1275380793        4.2111048218
H                -0.4449761612        2.3565184820        1.5648145226
