 66 
 
N                -9.9930000000        7.5620000000        8.8460000000
C               -10.0790000000        6.1110000000        8.9570000000
C                -9.8450000000        5.4490000000        7.6170000000
O               -10.3250000000        5.9090000000        6.5730000000
C               -11.5040000000        5.8740000000        9.4690000000
C               -11.9000000000        7.1570000000       10.1480000000
C               -11.2040000000        8.2420000000        9.3450000000
H                -9.3630000000        5.7320000000        9.6860000000
H               -12.1670000000        5.6570000000        8.6310000000
H               -11.5100000000        5.0430000000       10.1740000000
H               -12.9830000000        7.2790000000       10.1150000000
H               -11.5570000000        7.1540000000       11.1820000000
H               -11.8310000000        8.5770000000        8.5180000000
H               -10.9410000000        9.0880000000        9.9800000000
N                -8.4060000000        5.3730000000       15.4680000000
C                -8.9620000000        5.6130000000       14.1500000000
C               -10.4460000000        5.8840000000       14.2250000000
O               -10.9840000000        6.6250000000       13.4010000000
C                -8.7100000000        4.3620000000       13.3080000000
C                -8.2590000000        4.6560000000       11.9710000000
C                -8.1210000000        3.4370000000       11.1080000000
O                -8.2360000000        2.2800000000       11.5720000000
O                -7.8900000000        3.6550000000        9.9280000000
H                -7.9100000000        4.4850000000       15.5520000000
H                -8.4860000000        6.4780000000       13.6880000000
H                -7.9440000000        3.7580000000       13.7950000000
H                -9.6380000000        3.7960000000       13.2310000000
H                -8.9780000000        5.3230000000       11.4950000000
H                -7.2830000000        5.1380000000       12.0260000000
N               -11.1360000000        5.2720000000       15.1880000000
C               -13.0290000000        6.7990000000       15.6840000000
O               -14.2090000000        7.1240000000       15.5260000000
C               -12.5850000000        5.4040000000       15.2700000000
C               -13.1440000000        4.3380000000       16.2110000000
C               -12.9810000000        2.9160000000       15.6720000000
C               -13.3100000000        1.8620000000       16.7240000000
N               -12.3910000000        0.7250000000       16.6700000000
C               -11.9720000000        0.0420000000       17.7350000000
N               -12.3900000000        0.3710000000       18.9510000000
N               -11.1340000000       -0.9750000000       17.5810000000
H               -10.7240000000        4.6870000000       15.9150000000
H               -13.0210000000        5.2230000000       14.2880000000
H               -12.6190000000        4.3980000000       17.1640000000
H               -14.2080000000        4.5210000000       16.3590000000
H               -13.6540000000        2.7740000000       14.8270000000
H               -11.9480000000        2.7690000000       15.3550000000
H               -13.2380000000        2.3100000000       17.7150000000
H               -14.3210000000        1.4910000000       16.5550000000
H               -12.0470000000        0.4350000000       15.7540000000
H               -13.0360000000        1.1510000000       19.0750000000
H               -12.0650000000       -0.1560000000       19.7620000000
H               -10.8110000000       -1.2330000000       16.6480000000
H               -10.8120000000       -1.4990000000       18.3950000000
O               -10.2160000000        1.1710000000       13.2630000000
H                -9.4770000000        1.5700000000       13.2670000000
H               -10.8120000000        1.7630000000       13.2630000000
O               -12.2070000000        2.5090000000       11.7290000000
H               -11.5330000000        3.0100000000       11.7290000000
H               -12.8820000000        3.0090000000       11.7290000000
O               -14.1670000000        4.7090000000       11.9880000000
H               -13.4930000000        5.2100000000       11.9880000000
H               -14.8420000000        5.2090000000       11.9880000000
H                -9.3349469870        7.8656494863        9.3796321032
H                -9.2906617910        4.6186960504        7.5595152089
H                -7.8198943100        6.0253866897       15.6701675720
H               -12.3680524730        7.4377758856       16.0778448101
