 196 
 
N                18.8050000000        2.2830000000        9.1080000000
C                18.6230000000        2.6950000000        7.7210000000
C                18.3560000000        4.1830000000        7.5400000000
O                18.7480000000        4.7420000000        6.5090000000
C                17.5070000000        1.8610000000        7.0710000000
C                17.9800000000        0.4130000000        6.8110000000
C                16.8340000000       -0.5420000000        6.5820000000
C                17.3210000000       -1.9870000000        6.6080000000
N                16.1880000000       -2.9540000000        6.6550000000
H                17.9740000000        2.4080000000        9.6860000000
H                19.5370000000        2.4910000000        7.1640000000
H                16.6440000000        1.8290000000        7.7360000000
H                17.2270000000        2.3100000000        6.1180000000
H                18.6120000000        0.3990000000        5.9230000000
H                18.5430000000        0.0620000000        7.6760000000
H                16.0900000000       -0.4130000000        7.3680000000
H                16.3850000000       -0.3460000000        5.6080000000
H                17.9020000000       -2.1860000000        5.7080000000
H                17.9390000000       -2.1420000000        7.4930000000
H                16.5520000000       -3.9280000000        6.6710000000
H                15.6180000000       -2.7920000000        7.5100000000
H                15.5830000000       -2.8340000000        5.8180000000
N                17.7160000000        4.8430000000        8.4990000000
C                17.4870000000        6.2840000000        8.4100000000
C                17.8900000000        6.9040000000        9.7430000000
O                17.0380000000        7.3840000000       10.5160000000
C                16.0480000000        6.6600000000        8.0070000000
C                15.8690000000        6.6670000000        6.4910000000
C                15.0370000000        5.7430000000        8.6280000000
H                17.3450000000        4.4120000000        9.3460000000
H                18.1230000000        6.6840000000        7.6200000000
H                15.8720000000        7.6690000000        8.3800000000
H                14.8400000000        6.9380000000        6.2560000000
H                16.5530000000        7.3960000000        6.0560000000
H                16.0890000000        5.6720000000        6.1030000000
H                14.0390000000        6.0500000000        8.3140000000
H                15.2340000000        4.7230000000        8.2980000000
H                15.1200000000        5.8060000000        9.7130000000
N                16.1120000000       12.0430000000        3.9330000000
C                17.3560000000       11.3190000000        4.1580000000
C                17.5930000000       10.2700000000        3.0830000000
O                18.6680000000       10.2190000000        2.4770000000
C                17.3080000000       10.7040000000        5.5540000000
C                18.5770000000       10.0070000000        5.9660000000
C                18.6200000000        9.6660000000        7.4380000000
O                17.5580000000        9.7650000000        8.1060000000
O                19.7160000000        9.3210000000        7.9270000000
H                15.3680000000       11.8210000000        4.5950000000
H                18.2030000000       12.0040000000        4.1100000000
H                17.1160000000       11.4970000000        6.2770000000
H                16.5030000000        9.9700000000        5.5840000000
H                18.6670000000        9.0770000000        5.4040000000
H                19.4240000000       10.6580000000        5.7480000000
N                16.6080000000        9.4220000000        2.8470000000
C                16.6130000000        8.4530000000        1.7570000000
C                15.1890000000        7.9180000000        1.6580000000
O                14.3380000000        8.2170000000        2.4980000000
C                17.6320000000        7.3350000000        1.9860000000
C                17.3170000000        6.4750000000        3.1920000000
O                16.2290000000        5.8970000000        3.3120000000
N                18.2900000000        6.3600000000        4.0870000000
H                15.7590000000        9.3760000000        3.4110000000
H                16.8810000000        8.9330000000        0.8160000000
H                17.6490000000        6.6880000000        1.1090000000
H                18.6150000000        7.7800000000        2.1400000000
H                18.1480000000        5.7960000000        4.9250000000
H                19.1800000000        6.8360000000        3.9370000000
N                14.9360000000        7.1320000000        0.6140000000
C                13.6440000000        6.4980000000        0.3950000000
C                13.7800000000        4.9830000000        0.2870000000
O                13.0980000000        4.3300000000       -0.5050000000
C                12.9300000000        7.1010000000       -0.8010000000
C                12.6340000000        8.5500000000       -0.6520000000
C                11.6100000000        8.9900000000        0.1810000000
C                13.3750000000        9.4990000000       -1.3310000000
C                11.3450000000       10.3340000000        0.3200000000
C                13.1100000000       10.8280000000       -1.1770000000
C                12.0940000000       11.2530000000       -0.3660000000
H                15.6220000000        6.9140000000       -0.1090000000
H                13.0140000000        6.6890000000        1.2630000000
H                13.5590000000        6.9790000000       -1.6830000000
H                11.9830000000        6.5810000000       -0.9430000000
H                11.0170000000        8.2700000000        0.7240000000
H                14.1710000000        9.1850000000       -1.9900000000
H                10.5470000000       10.6630000000        0.9690000000
H                13.7110000000       11.5550000000       -1.7030000000
H                11.8830000000       12.3080000000       -0.2670000000
N                14.6710000000        4.4070000000        1.0970000000
C                14.8940000000        2.9640000000        1.0610000000
C                13.6130000000        2.2170000000        1.4180000000
O                13.2220000000        1.2550000000        0.7450000000
C                16.0530000000        2.5870000000        2.0030000000
C                17.3870000000        3.1100000000        1.4490000000
C                16.1170000000        1.0800000000        2.2080000000
C                18.4990000000        3.1870000000        2.5020000000
H                15.2450000000        4.9050000000        1.7780000000
H                15.1710000000        2.6770000000        0.0470000000
H                15.8680000000        3.0570000000        2.9690000000
H                17.7240000000        2.4430000000        0.6560000000
H                17.2330000000        4.1130000000        1.0520000000
H                16.9450000000        0.8480000000        2.8780000000
H                15.1780000000        0.7410000000        2.6460000000
H                16.2720000000        0.5970000000        1.2430000000
H                19.4070000000        3.5640000000        2.0320000000
H                18.1860000000        3.8600000000        3.3000000000
H                18.6760000000        2.1900000000        2.9050000000
N                12.9380000000        2.6570000000        2.4770000000
C                11.7940000000        1.9430000000        3.0250000000
C                10.5160000000        2.4240000000        2.3610000000
O                10.3840000000        3.5960000000        2.0070000000
C                11.7160000000        2.1400000000        4.5400000000
C                12.8800000000        1.5300000000        5.3160000000
C                14.1830000000        2.2660000000        5.1480000000
C                12.5370000000        1.4920000000        6.7990000000
H                13.1640000000        3.5150000000        2.9810000000
H                11.8940000000        0.8750000000        2.8340000000
H                11.7030000000        3.2090000000        4.7500000000
H                10.7980000000        1.6770000000        4.9030000000
H                13.0310000000        0.5280000000        4.9130000000
H                14.9530000000        1.7630000000        5.7330000000
H                14.4580000000        2.2650000000        4.0930000000
H                14.0600000000        3.2910000000        5.4990000000
H                13.3730000000        1.0550000000        7.3450000000
H                12.3560000000        2.5090000000        7.1480000000
H                11.6420000000        0.8860000000        6.9410000000
N                 9.5680000000        1.5070000000        2.2010000000
C                 8.3320000000        1.7690000000        1.4820000000
C                 7.1350000000        1.6260000000        2.4130000000
O                 7.2080000000        1.0150000000        3.4900000000
C                 8.1810000000        0.8220000000        0.2810000000
C                 9.2740000000        0.9720000000       -0.7670000000
C                 9.0640000000        0.0060000000       -1.9380000000
C                10.3620000000       -0.2450000000       -2.7100000000
N                11.1550000000       -1.3640000000       -2.1240000000
H                 9.6320000000        0.5570000000        2.5660000000
H                 8.3430000000        2.7950000000        1.1130000000
H                 8.2060000000       -0.2060000000        0.6420000000
H                 7.2260000000        1.0230000000       -0.2050000000
H                 9.2640000000        1.9900000000       -1.1560000000
H                10.2410000000        0.7560000000       -0.3140000000
H                 8.7050000000       -0.9490000000       -1.5560000000
H                 8.3340000000        0.4300000000       -2.6270000000
H                10.1210000000       -0.5020000000       -3.7420000000
H                10.9750000000        0.6560000000       -2.6840000000
H                12.0280000000       -1.5070000000       -2.6720000000
H                11.4070000000       -1.1440000000       -1.1390000000
H                10.5980000000       -2.2420000000       -2.1420000000
N                 9.5200000000       10.0270000000        3.7930000000
C                10.5320000000        9.1450000000        4.3680000000
C                 9.9240000000        8.2330000000        5.4200000000
O                 9.4600000000        8.7080000000        6.4680000000
C                11.6970000000        9.9480000000        4.9450000000
C                12.7230000000        9.0230000000        5.6080000000
C                12.3460000000       10.8060000000        3.8700000000
H                 9.5310000000       10.9700000000        4.1810000000
H                10.9010000000        8.5010000000        3.5690000000
H                11.3110000000       10.6170000000        5.7140000000
H                13.5380000000        9.6260000000        6.0080000000
H                12.2370000000        8.4730000000        6.4140000000
H                13.1070000000        8.3270000000        4.8620000000
H                13.1710000000       11.3650000000        4.3120000000
H                12.7190000000       10.1590000000        3.0760000000
H                11.6030000000       11.4950000000        3.4690000000
O                13.5900000000        5.0680000000        4.3340000000
H                14.2560000000        5.5800000000        4.3520000000
H                12.9380000000        5.5070000000        4.6290000000
O                16.9820000000        6.7140000000       -1.5510000000
H                17.7020000000        7.1460000000       -1.5740000000
H                16.3960000000        7.1990000000       -1.9070000000
O                20.9070000000        7.6190000000        3.7540000000
H                21.7130000000        7.8530000000        3.7320000000
H                20.4490000000        8.3140000000        3.6400000000
O                21.7380000000        8.4850000000        6.3530000000
H                22.4470000000        8.9360000000        6.3510000000
H                21.1040000000        9.0300000000        6.4300000000
O                20.9190000000        3.6580000000        5.0650000000
H                21.5930000000        4.1590000000        5.0650000000
H                20.2440000000        4.1580000000        5.0650000000
O                11.4350000000        5.9750000000        2.8480000000
H                11.9350000000        6.5920000000        3.1220000000
H                10.8070000000        6.3410000000        2.4270000000
O                12.9930000000       -1.5860000000        1.2300000000
H                13.6660000000       -1.0980000000        1.1130000000
H                12.3180000000       -1.1020000000        1.1060000000
O                20.9830000000       11.7290000000        3.3200000000
H                21.6460000000       12.2450000000        3.3190000000
H                20.2980000000       12.2140000000        3.3570000000
O                24.8480000000        8.2690000000        3.7680000000
H                25.3290000000        8.6070000000        4.3680000000
H                24.1030000000        8.6540000000        3.8090000000
H                19.0212858764        1.4098277535        9.1361184562
H                18.8530036758        6.9308626258       10.0111460792
H                16.2635885514       12.9278374950        3.9969024136
H                 6.2557771222        2.0314676576        2.1628738124
H                 9.6544259683       10.1005000534        2.9061361992
H                 9.8964430589        7.2447827047        5.2694437239
