 247 
 
N                15.0829815288       19.4706553194       -6.8859080383
C                15.2175665710       20.9061465453       -6.6168508538
C                15.1981698634       21.1069595827       -5.0987807892
O                14.6423919658       20.2537170009       -4.3898680697
C                14.0071258909       21.6104985117       -7.2142683258
C                13.8675178325       21.4279119069       -8.6790256469
C                13.1303282449       20.3635757868       -9.1967784114
C                14.5293052782       22.2962658147       -9.5351779956
C                13.1046586778       20.1775655079      -10.5586113637
C                14.5412044256       22.0545764092      -10.9054402570
C                13.8259414918       20.9995627154      -11.4106639936
H                14.3475610294       18.9790134074       -6.3894115075
H                16.1507792336       21.2543388588       -7.0654240256
H                13.1219573018       21.2166049521       -6.7046559763
H                14.0696998515       22.6774543949       -6.9747771567
H                12.6096222955       19.6936768976       -8.5315956598
H                15.0899843229       23.1183834990       -9.1167832824
H                12.5545867397       19.3423168644      -10.9630926569
H                15.1118170502       22.6966658370      -11.5597845090
H                13.8617600065       20.7869623307      -12.4695133791
N                15.7959830219       22.1339121939       -4.5067306469
C                15.7776849395       22.4140075178       -3.1324384714
C                15.0606792563       23.7326993241       -2.9024502429
O                15.1997812760       24.7028667808       -3.6744164963
H                16.1661152402       22.8616872595       -5.1107281639
H                15.2356762786       21.6094378793       -2.6242260376
C                17.2204658235       22.4684906536       -2.7161610932
O                17.6304949033       21.1280077536       -2.5659022730
C                17.3977244821       23.3415426206       -1.5063185912
H                17.7918000593       22.9177000574       -3.5463097936
H                18.5775470129       21.1333160589       -2.3697160032
H                18.3626663524       23.1768335177       -1.0431815803
H                17.3418851484       24.3813593296       -1.8072667780
H                16.6094773162       23.1573825015       -0.7879101742
N                14.2195542305       23.7061184871       -1.9025148223
C                13.4659666315       24.8878329629       -1.4770865713
C                13.7585271360       25.2760646770       -0.0774825282
O                13.6926122601       24.4814961086        0.8278041412
C                11.9504801612       24.5864852938       -1.5558914763
C                11.0907253580       25.7929830387       -1.3051752311
C                11.3748264923       26.8452587104       -2.3463640235
C                 9.5961510821       25.4005686662       -1.4780270239
H                14.0856043767       22.8614644741       -1.3592009004
H                13.7373226306       25.6820798351       -2.1757643627
H                11.7380701351       24.1871108247       -2.5490031094
H                11.7380718607       23.8016898446       -0.8243345199
H                11.2494956447       26.1884891587       -0.2989056193
H                10.7062258609       27.6939026687       -2.2094048034
H                12.3853574626       27.2395701197       -2.2838686234
H                11.2130624389       26.4368920154       -3.3408739377
H                 8.9557940760       26.2628672613       -1.3282664998
H                 9.4414687569       25.0131794683       -2.4807683361
H                 9.3163003669       24.6320774536       -0.7603403873
N                14.1698353883       26.5290354768        0.2005755709
C                14.4572672799       27.0871827914        1.5174143509
C                13.1489649053       27.6311699220        2.1368706949
O                12.5038157208       28.4498022639        1.5005606621
C                15.5427181451       28.1370740369        1.3983758145
C                15.9422516682       28.5214994523        2.7946640620
C                17.1947040280       29.4027773103        2.7218524669
O                17.1900099202       30.4494289405        2.1304690579
N                18.2457740780       28.9746809516        3.3714275968
H                14.2248942903       27.2007023823       -0.5604730853
H                14.8093558865       26.2537884808        2.1387567403
H                16.3836480987       27.7130344630        0.8485616458
H                15.1671225811       29.0080360686        0.8591520816
H                15.1521744815       29.1148615134        3.2568948000
H                16.1379704207       27.6445266528        3.4103497106
H                18.2228315221       28.1550724178        3.9683101312
H                19.0775574413       29.5560546624        3.4371569436
O                20.2840783560       19.4168100889       -1.5433779344
H                20.2900832693       20.3172142440       -1.2035895795
H                19.3608095141       19.1678729998       -1.6308942687
O                16.7701552082       24.5946498817       -6.2775501111
H                17.0467292171       25.4127650157       -6.7020336515
H                16.1901655116       24.8710947586       -5.5525334827
O                19.4168100889       25.2159216440       -1.5433779344
H                20.3172142440       25.2099167307       -1.2035895795
H                19.1678729998       26.1391904859       -1.6308942687
O                20.2840783560       26.0831899111        1.5433779344
H                20.2900832693       25.1827857560        1.2035895795
H                19.3608095141       26.3321270002        1.6308942687
O                19.4168100889       20.2840783560        1.5433779344
H                20.3172142440       20.2900832693        1.2035895795
H                19.1678729998       19.3608095141        1.6308942687
O                18.9707108818       27.0485942273       -5.1256359416
H                19.2002020934       26.1339674749       -5.3120414063
H                19.7601313880       27.4726222700       -4.7810057617
O                18.4514057727       18.9707108818       -5.1256359416
H                19.3660325251       19.2002020934       -5.3120414063
H                18.0273777300       19.7601313880       -4.7810057617
O                16.7583732966       26.5468240987       -8.9846998088
H                16.5538907194       25.6902023886       -9.3650040582
H                17.7185773609       26.6027673613       -8.9212463292
N                16.9485577871       29.5918219577       -9.1835354937
C                17.3250476071       29.8255462540       -7.8105868571
C                18.8216241758       29.5175833176       -7.6652887007
O                19.3874912711       28.6186909066       -8.2940263036
H                16.9815736107       28.6199103837       -9.4738644187
H                17.1704601878       30.8847778595       -7.5910949854
C                16.6016776871       28.9004190347       -6.8056660189
C                15.4075491141       29.4322170757       -6.0805533677
C                15.3134619154       30.6759952236       -5.4734262512
C                14.3306912008       28.5811193653       -5.9223709781
C                14.1454639306       31.1048043253       -4.8839451772
C                13.1619526808       28.9801609975       -5.2962309652
C                13.0253036138       30.2781416922       -4.8358592379
O                11.8369512813       30.7868668930       -4.3755652132
H                16.3197993764       27.9943896557       -7.3430479479
H                17.3453401328       28.6087908037       -6.0567143312
H                16.1730276102       31.3250334953       -5.4581302143
H                14.4414982075       27.5912419777       -6.3302772913
H                14.0965600376       32.0634111743       -4.3915717770
H                12.3343202827       28.2968593978       -5.1779654040
H                11.3066590765       30.1102581703       -3.9399992140
N                23.3660878061       15.7959830219       -4.5067306469
C                23.0859924822       15.7776849395       -3.1324384714
C                21.7673006759       15.0606792563       -2.9024502429
O                20.7971332192       15.1997812760       -3.6744164963
H                22.6383127405       16.1661152402       -5.1107281639
H                23.8905621207       15.2356762786       -2.6242260376
C                23.0315093464       17.2204658235       -2.7161610932
O                24.3719922464       17.6304949033       -2.5659022730
C                22.1584573794       17.3977244821       -1.5063185912
H                22.5822999426       17.7918000593       -3.5463097936
H                24.3666839411       18.5775470129       -2.3697160032
H                22.3231664823       18.3626663524       -1.0431815803
H                21.1186406704       17.3418851484       -1.8072667780
H                22.3426174985       16.6094773162       -0.7879101742
N                18.9709645232       14.1698353883        0.2005755709
C                18.4128172086       14.4572672799        1.5174143509
C                17.8688300780       13.1489649053        2.1368706949
O                17.0501977361       12.5038157208        1.5005606621
C                17.3629259631       15.5427181451        1.3983758145
C                16.9785005477       15.9422516682        2.7946640620
C                16.0972226897       17.1947040280        2.7218524669
O                15.0505710595       17.1900099202        2.1304690579
N                16.5253190484       18.2457740780        3.3714275968
H                18.2992976177       14.2248942903       -0.5604730853
H                19.2462115192       14.8093558865        2.1387567403
H                17.7869655370       16.3836480987        0.8485616458
H                16.4919639314       15.1671225811        0.8591520816
H                16.3851384866       15.1521744815        3.2568948000
H                17.8554733472       16.1379704207        3.4103497106
H                17.3449275822       18.2228315221        3.9683101312
H                15.9439453376       19.0775574413        3.4371569436
N                15.7959830219       23.3660878061        4.5067306469
C                15.7776849395       23.0859924822        3.1324384714
C                15.0606792563       21.7673006759        2.9024502429
O                15.1997812760       20.7971332192        3.6744164963
H                16.1661152402       22.6383127405        5.1107281639
H                15.2356762786       23.8905621207        2.6242260376
C                17.2204658235       23.0315093464        2.7161610932
O                17.6304949033       24.3719922464        2.5659022730
C                17.3977244821       22.1584573794        1.5063185912
H                17.7918000593       22.5822999426        3.5463097936
H                18.5775470129       24.3666839411        2.3697160032
H                18.3626663524       22.3231664823        1.0431815803
H                17.3418851484       21.1186406704        1.8072667780
H                16.6094773162       22.3426174985        0.7879101742
N                14.2195542305       21.7938815129        1.9025148223
C                13.4659666315       20.6121670371        1.4770865713
C                13.7585271360       20.2239353230        0.0774825282
O                13.6926122601       21.0185038914       -0.8278041412
C                11.9504801612       20.9135147062        1.5558914763
C                11.0907253580       19.7070169613        1.3051752311
C                11.3748264923       18.6547412896        2.3463640235
C                 9.5961510821       20.0994313338        1.4780270239
H                14.0856043767       22.6385355259        1.3592009004
H                13.7373226306       19.8179201649        2.1757643627
H                11.7380701351       21.3128891753        2.5490031094
H                11.7380718607       21.6983101554        0.8243345199
H                11.2494956447       19.3115108413        0.2989056193
H                10.7062258609       17.8060973313        2.2094048034
H                12.3853574626       18.2604298803        2.2838686234
H                11.2130624389       19.0631079846        3.3408739377
H                 8.9557940760       19.2371327387        1.3282664998
H                 9.4414687569       20.4868205317        2.4807683361
H                 9.3163003669       20.8679225464        0.7603403873
N                14.1698353883       18.9709645232       -0.2005755709
C                14.4572672799       18.4128172086       -1.5174143509
C                13.1489649053       17.8688300780       -2.1368706949
O                12.5038157208       17.0501977361       -1.5005606621
C                15.5427181451       17.3629259631       -1.3983758145
C                15.9422516682       16.9785005477       -2.7946640620
C                17.1947040280       16.0972226897       -2.7218524669
O                17.1900099202       15.0505710595       -2.1304690579
N                18.2457740780       16.5253190484       -3.3714275968
H                14.2248942903       18.2992976177        0.5604730853
H                14.8093558865       19.2462115192       -2.1387567403
H                16.3836480987       17.7869655370       -0.8485616458
H                15.1671225811       16.4919639314       -0.8591520816
H                15.1521744815       16.3851384866       -3.2568948000
H                16.1379704207       17.8554733472       -3.4103497106
H                18.2228315221       17.3449275822       -3.9683101312
H                19.0775574413       15.9439453376       -3.4371569436
N                 8.1077592200       21.1642515221       -7.6640046578
C                 8.8705887420       22.2511512105       -7.1218964945
C                 8.2504417281       23.5933399836       -7.3431877928
O                 8.0686813462       24.4439635945       -6.4575375517
C                10.3225874700       22.2638526303       -7.7056225785
C                11.1111555308       23.5507723676       -7.3856741216
C                11.6233509402       23.8466369571       -6.1279660927
C                11.3531809917       24.4823045355       -8.3794341240
C                12.2983987006       24.9972484952       -5.7573735673
C                12.0119739838       25.6745523822       -8.0424220043
C                12.4293094004       25.9480285585       -6.7445722503
H                 8.5023273535       20.6132018392       -8.4235898092
H                 8.9322776341       22.1419956601       -6.0284137826
H                10.8450121025       21.3908881980       -7.3216416056
H                10.2325889495       22.1824090200       -8.7884331391
H                11.4728001047       23.0893749429       -5.3616465334
H                10.9971638894       24.3321298514       -9.3861152566
H                12.6924386062       25.1245859328       -4.7662383521
H                12.1444233124       26.4249065774       -8.8052428127
H                12.8866657441       26.8962905914       -6.5466450121
N                18.9709645232       31.3301646117       -0.2005755709
C                18.4128172086       31.0427327201       -1.5174143509
C                17.8688300780       32.3510350947       -2.1368706949
O                17.0501977361       32.9961842792       -1.5005606621
C                17.3629259631       29.9572818549       -1.3983758145
C                16.9785005477       29.5577483318       -2.7946640620
C                16.0972226897       28.3052959720       -2.7218524669
O                15.0505710595       28.3099900798       -2.1304690579
N                16.5253190484       27.2542259220       -3.3714275968
H                18.2992976177       31.2751057097        0.5604730853
H                19.2462115192       30.6906441135       -2.1387567403
H                17.7869655370       29.1163519013       -0.8485616458
H                16.4919639314       30.3328774189       -0.8591520816
H                16.3851384866       30.3478255185       -3.2568948000
H                17.8554733472       29.3620295793       -3.4103497106
H                17.3449275822       27.2771684779       -3.9683101312
H                15.9439453376       26.4224425587       -3.4371569436
H                14.9127671010       19.3435843774       -7.7604822342
H                12.8510862166       27.3117343867        3.0364423849
H                16.1039835352       29.8733640571       -9.3155520811
H                19.3844540279       30.0565020377       -7.0385597555
H                24.0938789061       16.3032847212       -4.6582730522
H                21.6579159215       14.4559629395       -2.1135566178
H                19.6253907607       14.7595879802        0.0164066809
H                18.1882656133       12.8510862166        3.0364423849
H                16.3032847212       24.0938789061        4.6582730522
H                12.8510862166       18.1882656133       -3.0364423849
H                 7.9377242405       20.5637309896       -7.0155733231
H                 7.9479796376       23.8596218353       -8.2583985113
H                19.6253907607       30.7404120198       -0.0164066809
H                18.1882656133       32.6489137834       -3.0364423849
