 54 
 
N                 7.4891609125       25.1005821696       11.8548325163
C                 6.1257152126       24.6121160440       11.7234397550
C                 5.8636654185       24.5259041906       10.2216127798
O                 5.3453453367       23.5458713671        9.6738698499
C                 5.0485476242       25.4865664478       12.3533425633
C                 5.1674008339       25.7439293663       13.8467855086
C                 5.1473543878       24.5521326121       14.8439418605
O                 4.3148296569       24.6399596631       15.7798266177
O                 6.0240285851       23.6617411447       14.7241571538
H                 7.6385588238       25.8384426640       12.5519226653
H                 6.0527709506       23.5991129679       12.1446148545
H                 5.0373785513       26.4523940254       11.8476648683
H                 4.0844868120       25.0088873952       12.1534589207
H                 6.1056858677       26.2450918979       14.0693184049
H                 4.3481768088       26.3979410101       14.1467136871
N                 7.7120851535       21.6740874836        8.5802980489
C                 7.0989705851       20.3432207282        8.8347582744
C                 5.8117013067       20.1082692176        7.9588854816
O                 5.5869504108       19.0091113386        7.4520620916
H                 7.8383391984       22.2951599895        9.3700856064
H                 7.8069202192       19.5558162578        8.5752133995
C                 6.6779177830       20.2324217626       10.3021252158
C                 7.8043111520       20.1055463361       11.3077783649
C                 7.2422575943       20.0907352208       12.7817361674
O                 6.0604100879       20.4415346711       12.9691061531
O                 8.0602235379       19.7393175607       13.6467750645
H                 6.0797717389       21.1098438732       10.5633846296
H                 6.0105826380       19.3691581507       10.4005776471
H                 8.3734627967       19.1877696025       11.1564621753
H                 8.4733941996       20.9634927250       11.2364904476
N                 5.0564902988       21.1614272626        7.7281201323
C                 3.8474215159       21.0971562458        6.8542685559
C                 4.2700796487       20.6699595527        5.4626249012
O                 3.6995608351       19.7863977610        4.7898115399
C                 3.1207488859       22.4173729713        6.9229259888
C                 2.0266422695       22.4353944796        5.8983681464
S                 1.3802256733       24.0777930615        5.6963288726
C                 2.6484746715       24.8601354274        4.6411944759
H                 5.1708481344       22.0075393520        8.2759521880
H                 3.2032116154       20.2953607175        7.2469641689
H                 2.7284663510       22.5563732163        7.9308525125
H                 3.8456272749       23.2114499732        6.7149551220
H                 2.3846610816       22.0946935308        4.9241375487
H                 1.1951124826       21.7930201966        6.1891064788
H                 2.3442225004       25.8944909111        4.5559717203
H                 3.6282520724       24.7771826057        5.1010921977
H                 2.6486813659       24.3779795687        3.6686335762
O                 3.1579017678       22.0248804471       10.5897259064
H                 3.9741948366       22.4798143293       10.3374501950
H                 3.2188786159       21.8661192112       11.5329994585
H                 8.0301486098       24.4213306355       12.0913693310
H                 6.1148307818       25.2886172696        9.6256390224
H                 8.5354432841       21.5642616184        8.2338595000
H                 5.0559186794       21.1050290530        5.0231120484
