 136 
 
N                 1.5700000000       24.4290000000       16.9730000000
C                 0.3240000000       25.0530000000       16.5480000000
C                -0.8710000000       24.1300000000       16.5920000000
O                -1.9990000000       24.6150000000       16.4560000000
C                 0.4690000000       25.6720000000       15.1500000000
C                 1.5520000000       26.7620000000       15.1450000000
C                 1.6420000000       27.5030000000       13.8440000000
N                 0.4000000000       28.2120000000       13.5660000000
C                -0.0030000000       29.3140000000       14.2050000000
N                 0.7400000000       29.8640000000       15.1730000000
N                -1.1620000000       29.8660000000       13.8840000000
H                 1.7770000000       23.5500000000       16.4980000000
H                 0.1020000000       25.8800000000       17.2220000000
H                 0.7530000000       24.8970000000       14.4380000000
H                -0.4780000000       26.1230000000       14.8520000000
H                 1.3270000000       27.4870000000       15.9270000000
H                 2.5210000000       26.2990000000       15.3330000000
H                 2.4520000000       28.2310000000       13.8950000000
H                 1.8260000000       26.7960000000       13.0350000000
H                -0.2040000000       27.8410000000       12.8320000000
H                 1.6310000000       29.4420000000       15.4340000000
H                 0.4150000000       30.7060000000       15.6490000000
H                -1.7400000000       29.4500000000       13.1540000000
H                -1.4770000000       30.7070000000       14.3670000000
O                 2.7410000000       32.5600000000       16.4630000000
H                 3.4970000000       32.8080000000       16.7330000000
H                 2.3210000000       33.2540000000       16.2450000000
O                 2.2230000000       34.3260000000       14.3720000000
H                 2.8570000000       34.8680000000       14.4740000000
H                 1.5140000000       34.7760000000       14.3870000000
O                 3.2430000000       29.9980000000       15.4070000000
H                 4.0650000000       29.8290000000       15.3760000000
H                 3.1700000000       30.8150000000       15.5870000000
O                 5.7350000000       26.8080000000       14.6910000000
H                 6.4090000000       27.3090000000       14.6900000000
H                 5.0600000000       27.3080000000       14.6900000000
N                -1.8250000000       33.3810000000       19.4255000000
C                -0.6130000000       33.0800000000       18.6645000000
C                 0.4630000000       34.0370000000       19.1675000000
O                 0.2880000000       35.2540000000       19.1045000000
C                -0.8520000000       33.2730000000       17.1655000000
C                -1.6120000000       32.1250000000       16.5465000000
O                -1.6370000000       31.0430000000       17.1295000000
O                -2.1500000000       32.2930000000       15.4485000000
H                -2.3520000000       34.1710000000       19.0535000000
H                -0.2970000000       32.0480000000       18.8165000000
H                -1.4310000000       34.1830000000       17.0115000000
H                 0.1100000000       33.3530000000       16.6595000000
N                 1.5440000000       33.4970000000       19.6875000000
C                 2.5860000000       34.2570000000       20.3735000000
C                 3.7580000000       34.4830000000       19.4295000000
O                 4.1780000000       33.5780000000       18.6905000000
C                 3.0580000000       33.5100000000       21.6405000000
C                 1.8930000000       33.2050000000       22.5795000000
C                 4.1540000000       34.2690000000       22.3735000000
C                 1.2350000000       34.4040000000       23.1705000000
H                 1.7420000000       32.4970000000       19.6535000000
H                 2.1820000000       35.2290000000       20.6555000000
H                 3.4780000000       32.5630000000       21.3025000000
H                 1.1340000000       32.6560000000       22.0215000000
H                 2.2640000000       32.5950000000       23.4035000000
H                 4.4500000000       33.7010000000       23.2555000000
H                 5.0080000000       34.3920000000       21.7065000000
H                 3.7710000000       35.2450000000       22.6715000000
H                 0.4220000000       34.0790000000       23.8205000000
H                 1.9710000000       34.9640000000       23.7475000000
H                 0.8420000000       35.0260000000       22.3665000000
N                 4.3150000000       35.6810000000       19.4805000000
C                 5.5080000000       36.0250000000       18.7165000000
C                 6.5630000000       36.6000000000       19.6555000000
O                 6.2440000000       37.2020000000       20.6945000000
C                 5.2200000000       37.0390000000       17.6135000000
H                 3.9600000000       36.4490000000       20.0505000000
H                 5.8980000000       35.1200000000       18.2505000000
H                 6.1460000000       37.2560000000       17.0805000000
H                 4.4850000000       36.6180000000       16.9275000000
H                 4.8280000000       37.9510000000       18.0635000000
N                 7.4420000000       34.0490000000       14.9025000000
C                 6.4110000000       33.1730000000       15.4755000000
C                 7.0250000000       32.2280000000       16.4945000000
O                 8.1320000000       31.7230000000       16.3085000000
C                 5.8660000000       32.4040000000       14.2675000000
C                 6.3840000000       33.0800000000       13.0675000000
C                 7.6120000000       33.8540000000       13.4505000000
H                 5.6090000000       33.7580000000       15.9255000000
H                 6.2150000000       31.3720000000       14.3065000000
H                 4.7760000000       32.4300000000       14.2815000000
H                 6.6320000000       32.3300000000       12.3165000000
H                 5.6200000000       33.7550000000       12.6825000000
H                 8.5150000000       33.2820000000       13.2375000000
H                 7.6460000000       34.8110000000       12.9305000000
N                 6.3190000000       32.0170000000       17.6025000000
C                 6.7280000000       31.0180000000       18.5845000000
C                 5.7780000000       29.8290000000       18.5915000000
O                 6.1970000000       28.6930000000       18.3705000000
C                 6.7820000000       31.6610000000       19.9785000000
C                 7.2030000000       30.7260000000       21.1055000000
C                 8.6020000000       30.2210000000       20.9375000000
C                 7.0470000000       31.4480000000       22.4415000000
H                 7.7290000000       30.6550000000       18.3505000000
H                 7.4980000000       32.4830000000       19.9505000000
H                 5.7890000000       32.0400000000       20.2215000000
H                 6.5590000000       29.8470000000       21.0875000000
H                 8.8430000000       29.5600000000       21.7705000000
H                 8.6710000000       29.6750000000       19.9965000000
H                 9.2860000000       31.0690000000       20.9265000000
H                 7.3490000000       30.7760000000       23.2455000000
H                 7.6800000000       32.3360000000       22.4415000000
H                 6.0030000000       31.7350000000       22.5695000000
H                 5.4650000000       32.5200000000       17.8445000000
N                 4.4920000000       30.0680000000       18.7715000000
C                 3.5240000000       28.9960000000       18.7735000000
C                 2.1950000000       29.4990000000       19.2965000000
O                 2.0190000000       30.6900000000       19.5685000000
H                 4.0910000000       30.9940000000       18.9185000000
H                 3.3860000000       28.6180000000       17.7605000000
H                 3.8710000000       28.1830000000       19.4115000000
N                 0.3120000000       37.9770000000       18.5985000000
C                 0.2540000000       38.3530000000       17.1865000000
C                -1.1390000000       38.1660000000       16.6075000000
O                -1.5480000000       38.9140000000       15.7055000000
C                 1.2800000000       37.5220000000       16.4315000000
H                 0.9076078771       37.3112017730       18.7078799695
H                 0.5010000000       39.4080000000       17.0685000000
H                 1.2480000000       37.7920000000       15.3755000000
H                 2.2710000000       37.7260000000       16.8375000000
H                 1.0390000000       36.4660000000       16.5525000000
H                 0.7770000000       37.0880000000       18.7825000000
H                 2.2566986965       24.9872330450       16.8092295272
H                -0.7396538814       23.1481706909       16.7289649773
H                -2.3704390007       32.6651587244       19.4172802324
H                 7.5339973376       36.4960818930       19.4401742064
H                 7.2357855737       34.9080253804       15.0744040611
H                 1.4359597147       28.8614681602       19.4284507424
H                 0.5644567322       38.6883237859       19.0886877905
H                -1.7305540878       37.4376371044       16.9532618451
