 278 
 
N                 5.2639590183       21.3961556662        4.9121159855
C                 5.6743383447       21.1181824825        3.5965184413
C                 6.2762311116       19.7067298937        3.4556098487
O                 6.1484167859       19.0398462594        2.4336925623
C                 6.6924545299       22.1402880607        3.0211793445
C                 5.9912110627       23.4229673993        2.5684166104
C                 4.8956920930       23.4061316080        1.6938452491
C                 6.2967653767       24.6600623096        3.0445667401
C                 4.1932519745       24.5301535470        1.3576517189
C                 5.6721678096       25.8413221349        2.6047032915
C                 4.5396362928       25.7542343001        1.8378474626
H                 5.7173994052       22.1347539473        5.4443080277
H                 4.7831063497       21.1028011149        2.9506581792
H                 7.4342618261       22.3563228945        3.7872792620
H                 7.1740624807       21.6764314515        2.1615122737
H                 4.5946657337       22.4574967890        1.2658938111
H                 7.1213254093       24.7612568610        3.7375136045
H                 3.3274281438       24.4229560898        0.7181716469
H                 5.9872416492       26.7767339674        3.0295692713
H                 3.9776909181       26.6312353012        1.5586878839
N                 7.0247349250       19.3383790152        4.4750843841
C                 7.6688637639       17.9977234056        4.4494224330
C                 6.5659942301       16.9094818533        4.4140948014
O                 6.6643699789       15.9267105834        3.6497086257
H                 7.1806727395       19.9151776745        5.2925977408
H                 8.2287268646       17.9044827087        3.5155232399
C                 8.6203537831       17.6787498807        5.6359634096
C                 9.1471508138       16.2283113817        5.7220212336
C                10.1701947212       15.8019634741        4.6450334002
N                10.4622696751       14.3567622333        4.7250477065
C                11.3474649302       13.6542807525        4.0079217293
N                12.3155807889       14.2263186817        3.3015003794
N                11.4003761917       12.3221133373        4.1740498457
H                 9.4601319189       18.3732739537        5.5924686586
H                 8.0622487923       17.8746814550        6.5550581158
H                 9.6079581711       16.1411252196        6.7050698991
H                 8.2989312446       15.5403601108        5.6988122283
H                 9.7648401644       16.0259760429        3.6581558346
H                11.1047331529       16.3493830177        4.7863783499
H                 9.7190021586       13.7773172832        5.1406365984
H                12.1607153264       15.1401264248        2.8976261583
H                12.9512313345       13.6254774352        2.7749222480
H                10.5982781644       11.8802441063        4.6035936610
H                12.0145397391       11.7553014302        3.6016204907
N                 3.3997144547       17.2097852311        3.2302823492
C                 2.7887724123       17.2488534972        1.9524348244
C                 3.6829401239       16.5548171256        0.9185496108
O                 3.2076198244       15.8067334869        0.0607591968
C                 2.5719105780       18.7170377886        1.5124276933
C                 1.4399326726       19.3872470087        2.3180548307
C                 1.3562155405       20.8269389721        1.8984877841
C                 0.0613050983       18.8411487799        2.0132818201
H                 3.6118545736       18.0744111902        3.7140059877
H                 1.8409904961       16.6970574369        1.9644661558
H                 3.5085548237       19.2519003784        1.6634440886
H                 2.3155999974       18.7199056852        0.4527309833
H                 1.6373717666       19.2987091713        3.3828502687
H                 0.5892199471       21.3470462898        2.4688813385
H                 2.2979488381       21.3501708668        2.0719231367
H                 1.1156140665       20.9067783249        0.8407328051
H                -0.6705713805       19.3830761473        2.6074817998
H                -0.1883239250       18.9592540789        0.9634035574
H                -0.0427371263       17.7862466650        2.2653935112
N                 4.9743244599       16.8501460759        0.9437895356
C                 5.8776158835       16.2750240845       -0.0604097288
C                 5.9835927172       14.7803532921        0.0989518972
O                 5.9515518086       13.9441039127       -0.8454145535
C                 7.2629255771       16.8583481662        0.0801138020
C                 8.2598859019       16.4621309382       -0.9780859082
O                 9.3210341968       15.9078168378       -0.6873313050
N                 7.8517847816       16.7075484388       -2.1658585684
H                 5.3519177963       17.5069019491        1.6199060711
H                 5.4330356689       16.4577201767       -1.0476800393
H                 7.1701041373       17.9506237714        0.0767891454
H                 7.6631681714       16.5738813208        1.0576768602
H                 8.3233672788       16.3223936639       -2.9838752705
H                 6.9752301410       17.1881163569       -2.3005115922
N                 6.0351281611       14.3176556461        1.3578895281
C                 6.0752291471       12.8744424836        1.5808604319
C                 4.8136159238       12.1658131325        1.1126470434
O                 4.8131212951       11.0336735364        0.6353331100
C                 6.2207793203       12.3997238911        3.0499576174
C                 7.5702605151       12.7368964573        3.6585784506
C                 7.6564037514       12.4069804100        5.1778387809
O                 6.5984038212       12.0521024979        5.7636337711
O                 8.7919809812       12.5478253723        5.6768601186
H                 6.1387341499       14.9222948676        2.1701496675
H                 6.9006203776       12.4557106239        0.9864018293
H                 5.4300350985       12.8672304212        3.6415931951
H                 6.0841701965       11.3182374859        3.0424653998
H                 8.3682107213       12.2004231714        3.1436251417
H                 7.7683984729       13.8071815235        3.5629229644
N                 3.6551162983       12.8103981127        1.3349745090
C                 2.3574282830       12.2737940286        0.9349411757
C                 2.3134265755       12.1150090182       -0.6038959124
O                 1.8515939432       11.0908103456       -1.1138732172
C                 1.2583512831       13.1381861188        1.5659166914
H                 3.6409612285       13.6937174184        1.8366785954
H                 2.2847612798       11.2422195759        1.3067638911
H                 0.3003171332       12.6396223405        1.4614384450
H                 1.4929246230       13.2747237370        2.6167745279
H                 1.2318723650       14.1110094125        1.0835058101
N                 2.8303839899       13.1476675007       -1.3503251245
C                 2.8738593426       13.0842847008       -2.7883852329
C                 3.7186779367       11.9781799967       -3.2865126512
O                 3.3855371369       11.2610106840       -4.2296600646
C                 3.2327595377       14.3988510655       -3.3863966534
C                 2.1870819095       15.5239592384       -3.1126450878
C                 2.9293595275       16.7553539847       -3.5681653420
C                 0.9187099685       15.2662500831       -3.9400256660
H                 3.1640255999       13.9720453810       -0.8652504206
H                 1.8640357274       12.8095280240       -3.1427509895
H                 4.2076351645       14.6925833097       -2.9887497841
H                 3.3200968759       14.2586463360       -4.4640803112
H                 1.9533041710       15.5710251644       -2.0505147074
H                 2.3166640770       17.6487618815       -3.4664789614
H                 3.8324927829       16.8900497719       -2.9823215686
H                 3.2008995505       16.6520666290       -4.6158873767
H                 0.2507093959       16.1232722256       -3.9007870144
H                 1.1751008932       15.0908875377       -4.9827275160
H                 0.3829658550       14.3931335342       -3.5834264352
N                 4.9255250679       11.7982928012       -2.6648266097
C                 5.8439823055       10.6851582592       -3.0097801829
C                 5.2557145287        9.3221210589       -2.7143862676
O                 5.3783464879        8.4284496958       -3.5650485888
C                 7.2325464063       10.8812318282       -2.3975486520
C                 7.9183667515       12.1280795227       -2.9385258454
C                 9.3279171075       12.2482892414       -2.4128697543
O                 9.6560867344       11.5484059582       -1.4307965377
O                10.1005463192       13.0951665865       -2.9526341264
H                 5.1885261724       12.3799800109       -1.8808626220
H                 5.9505326199       10.7086313783       -4.1061111203
H                 7.1429785517       10.9582233553       -1.3108527494
H                 7.8361003525        9.9963453577       -2.6031488777
H                 7.9223892412       12.1221736817       -4.0312381526
H                 7.3766813840       13.0142113600       -2.5960657792
O                 9.0782349837       15.3508119301       -4.1316340103
H                 9.1472809248       14.3957759351       -3.8925702428
H                 9.8462625662       15.6574748480       -3.6270842687
O                10.1785203159       15.2391104185        1.7838307159
H                 9.9852157891       15.5408543651        0.8793589688
H                10.2667632506       14.2897498986        1.6945110551
O                12.2989541148       14.2419498884       -2.0206326739
H                12.2995066819       14.4100361850       -1.0782778742
H                11.4480456448       13.8093836226       -2.2274894263
N                14.2195542305       21.7938815129        1.9025148223
C                13.4659666315       20.6121670371        1.4770865713
C                13.7585271360       20.2239353230        0.0774825282
O                13.6926122601       21.0185038914       -0.8278041412
C                11.9504801612       20.9135147062        1.5558914763
C                11.0907253580       19.7070169613        1.3051752311
C                11.3748264923       18.6547412896        2.3463640235
C                 9.5961510821       20.0994313338        1.4780270239
H                14.0856043767       22.6385355259        1.3592009004
H                13.7373226306       19.8179201649        2.1757643627
H                11.7380701351       21.3128891753        2.5490031094
H                11.7380718607       21.6983101554        0.8243345199
H                11.2494956447       19.3115108413        0.2989056193
H                10.7062258609       17.8060973313        2.2094048034
H                12.3853574626       18.2604298803        2.2838686234
H                11.2130624389       19.0631079846        3.3408739377
H                 8.9557940760       19.2371327387        1.3282664998
H                 9.4414687569       20.4868205317        2.4807683361
H                 9.3163003669       20.8679225464        0.7603403873
N                14.1698353883       18.9709645232       -0.2005755709
C                14.4572672799       18.4128172086       -1.5174143509
C                13.1489649053       17.8688300780       -2.1368706949
O                12.5038157208       17.0501977361       -1.5005606621
C                15.5427181451       17.3629259631       -1.3983758145
C                15.9422516682       16.9785005477       -2.7946640620
C                17.1947040280       16.0972226897       -2.7218524669
O                17.1900099202       15.0505710595       -2.1304690579
N                18.2457740780       16.5253190484       -3.3714275968
H                14.2248942903       18.2992976177        0.5604730853
H                14.8093558865       19.2462115192       -2.1387567403
H                16.3836480987       17.7869655370       -0.8485616458
H                15.1671225811       16.4919639314       -0.8591520816
H                15.1521744815       16.3851384866       -3.2568948000
H                16.1379704207       17.8554733472       -3.4103497106
H                18.2228315221       17.3449275822       -3.9683101312
H                19.0775574413       15.9439453376       -3.4371569436
N                12.8843780016       18.2679765708       -3.3651690720
C                11.6044658063       18.0739497073       -4.0341428194
C                11.9623362009       17.4264854694       -5.3787008651
O                12.9019263514       17.8960356310       -6.0386666115
C                10.8657893301       19.3794873928       -4.2543104293
C                10.3908222163       19.9323061072       -2.8988891794
C                 9.5985523393       19.1422061812       -5.1188426093
C                10.0988415011       21.4517600412       -2.8996101672
H                13.4865450820       18.9651086218       -3.7998087964
H                11.0207768181       17.3977260418       -3.4025230715
H                11.5344709021       20.0928907086       -4.7391992680
H                 9.4987139328       19.3906379013       -2.5826090906
H                11.1629574632       19.7555810472       -2.1454271104
H                 8.9905093645       20.0381478172       -5.1436909229
H                 9.8598073984       18.8843566098       -6.1425807098
H                 9.0124907017       18.3348955113       -4.6913721787
H                 9.7041674816       21.7540561011       -1.9360093897
H                11.0193634448       21.9937492481       -3.0922384556
H                 9.3706144753       21.7092906776       -3.6631230336
N                11.2309201753       16.3931035341       -5.7726238866
C                11.4253128935       15.7447546915       -7.0622879925
C                10.4326541002       16.2554660831       -8.0861422677
O                 9.2395904861       16.1757083619       -7.8525496729
C                11.1906808492       14.2329827872       -6.8323698630
C                11.9687232166       13.3884683324       -7.8630962208
C                11.7367012739       11.8552275451       -7.6933621721
N                12.4483515806       11.1547978968       -8.7583335104
C                12.3094627542        9.8562893598       -9.0438027704
N                11.3698529053        9.1411444203       -8.4133017040
N                12.9997051443        9.3669854750      -10.0774657823
H                10.4275454666       16.0641507627       -5.2555526587
H                12.4558382549       15.9386375193       -7.3709441900
H                11.5210032936       13.9640607478       -5.8292002658
H                10.1215424536       14.0314424400       -6.8983532547
H                11.6307741609       13.6682090134       -8.8610950542
H                13.0292739339       13.6039394330       -7.7536132775
H                12.0839257227       11.5303524904       -6.7081427844
H                10.6709911689       11.6373686573       -7.7671920618
H                13.2005833768       11.6693055433       -9.1959811337
H                11.1075553838        9.4000074429       -7.4722468841
H                11.3124885137        8.1435828235       -8.5949408858
H                13.6697657228        9.9321690386      -10.5719450743
H                12.9112733611        8.3914653453      -10.3091728345
N                 6.3552308419       19.9358171357       -9.5023733894
C                 6.1042574258       19.8986968585       -8.0617828306
C                 6.8337040278       21.0035870756       -7.2897766668
O                 6.2993310072       21.6421296013       -6.3615883981
C                 6.4890424349       18.5209329333       -7.4933799476
C                 6.0525644398       18.2596814175       -6.0121278903
C                 6.4534884269       16.8166228163       -5.5853747234
N                 5.4711437709       15.9372611679       -6.2869613656
C                 5.6433580625       14.6302251284       -6.3768857090
N                 6.8149954916       14.1531946760       -6.0021713489
N                 4.7299444493       13.8632940581       -6.9486078283
H                 6.6638490171       19.0868457949       -9.9709374690
H                 5.0312035513       20.0732787334       -7.8909799060
H                 5.9959761801       17.7662680012       -8.1063764899
H                 7.5680479113       18.3911033406       -7.5742050195
H                 6.5347807005       18.9919001418       -5.3690358293
H                 4.9765918706       18.3850227828       -5.9184144126
H                 7.4595164734       16.6141968575       -5.9486457833
H                 6.3673065931       16.6797239746       -4.5114056697
H                 4.6128057046       16.3553349837       -6.6367319288
H                 7.4619091097       14.6980260458       -5.4590014422
H                 6.9886039456       13.1506017842       -6.0769560044
H                 3.8298435110       14.2372860522       -7.2071061110
H                 4.8608501682       12.8613324807       -7.1055996157
N                 5.2639590183       24.1038443338       -4.9121159855
C                 5.6743383447       24.3818175175       -3.5965184413
C                 6.2762311116       25.7932701063       -3.4556098487
O                 6.1484167859       26.4601537406       -2.4336925623
C                 6.6924545299       23.3597119393       -3.0211793445
C                 5.9912110627       22.0770326007       -2.5684166104
C                 4.8956920930       22.0938683920       -1.6938452491
C                 6.2967653767       20.8399376904       -3.0445667401
C                 4.1932519745       20.9698464530       -1.3576517189
C                 5.6721678096       19.6586778651       -2.6047032915
C                 4.5396362928       19.7457656999       -1.8378474626
H                 5.7173994052       23.3652460527       -5.4443080277
H                 4.7831063497       24.3971988851       -2.9506581792
H                 7.4342618261       23.1436771055       -3.7872792620
H                 7.1740624807       23.8235685485       -2.1615122737
H                 4.5946657337       23.0425032110       -1.2658938111
H                 7.1213254093       20.7387431390       -3.7375136045
H                 3.3274281438       21.0770439102       -0.7181716469
H                 5.9872416492       18.7232660326       -3.0295692713
H                 3.9776909181       18.8687646988       -1.5586878839
H                 4.3955411649       21.6324825247        4.9123345932
H                 5.7650209773       16.9899020990        5.0073691329
H                 2.8688231180       16.7631364612        3.8035704661
H                 4.7814331376        9.1590497923       -1.8492475943
H                13.9917097930       22.0076921028        2.7465361159
H                10.7588244517       16.6532434906       -8.9436887888
H                 5.6002179123       20.1694172875       -9.9329386518
H                 7.7772662183       21.2378118854       -7.5239328780
H                 4.3955411649       23.8675174753       -4.9123345932
H                 6.7914838883       26.1949786885       -4.2126731162
