 107 
 
N                15.1860000000       15.1720000000        3.0910000000
C                14.7610000000       13.7890000000        2.9070000000
C                16.0040000000       12.9110000000        2.9340000000
O                16.8660000000       13.0030000000        2.0560000000
C                14.0020000000       13.6330000000        1.5910000000
C                12.7010000000       14.3850000000        1.5740000000
O                11.9390000000       14.3280000000        2.5700000000
O                12.4070000000       15.0250000000        0.5560000000
H                15.0980000000       15.7390000000        2.2480000000
H                14.0820000000       13.4850000000        3.7040000000
H                14.6210000000       14.0120000000        0.7780000000
H                13.7830000000       12.5770000000        1.4310000000
N                 7.2460000000       10.3870000000        7.5650000000
C                 7.3040000000       11.8210000000        7.8140000000
C                 6.3200000000       12.5740000000        6.9390000000
O                 6.2920000000       12.3720000000        5.7250000000
C                 8.6920000000       12.3710000000        7.5340000000
C                 9.7220000000       11.9630000000        8.5310000000
S                 9.3600000000       12.4130000000       10.2740000000
C                 9.5260000000       14.2030000000       10.1930000000
H                 8.0510877047       10.0978364064        7.2853248244
H                 7.0560000000       11.9690000000        8.8650000000
H                 9.0180000000       12.0140000000        6.5570000000
H                 8.6430000000       13.4600000000        7.5360000000
H                 9.8270000000       10.8790000000        8.4920000000
H                10.6660000000       12.4380000000        8.2630000000
H                 9.3340000000       14.6220000000       11.1810000000
H                10.5380000000       14.4510000000        9.8740000000
H                 8.8040000000       14.5940000000        9.4760000000
H                 7.9900000000       10.0480000000        6.9550000000
N                 5.3080000000       16.1540000000        5.1780000000
C                 6.1400000000       17.2180000000        4.6340000000
C                 5.2890000000       18.1120000000        3.7520000000
O                 4.1050000000       17.8550000000        3.5180000000
C                 7.3930000000       16.6630000000        3.9240000000
C                 7.0580000000       15.8820000000        2.6700000000
O                 6.3040000000       16.3600000000        1.8320000000
N                 7.5970000000       14.6850000000        2.5390000000
H                 4.4430000000       15.9730000000        4.6690000000
H                 6.4950000000       17.8390000000        5.4560000000
H                 8.0380000000       17.4940000000        3.6410000000
H                 7.9210000000       15.9960000000        4.6050000000
H                 7.3990000000       14.1240000000        1.7100000000
H                 8.2120000000       14.3200000000        3.2660000000
N                11.1190000000       18.2100000000        6.0180000000
C                10.7360000000       17.4620000000        7.2060000000
C                10.8920000000       18.3090000000        8.4610000000
O                11.8780000000       19.0260000000        8.6250000000
C                11.6380000000       16.2440000000        7.3380000000
C                11.4580000000       15.2970000000        6.1940000000
O                10.4180000000       14.6520000000        6.0530000000
N                12.4570000000       15.2300000000        5.3400000000
H                11.9900000000       17.9060000000        5.5840000000
H                 9.6930000000       17.1570000000        7.1170000000
H                12.6790000000       16.5670000000        7.3540000000
H                11.3970000000       15.7160000000        8.2610000000
H                12.4000000000       14.6040000000        4.5370000000
H                13.2880000000       15.8040000000        5.4810000000
N                 7.6750000000       10.5230000000        0.8750000000
C                 7.7060000000       10.6540000000        2.3260000000
C                 8.6760000000        9.6180000000        2.8550000000
O                 8.6480000000        8.4510000000        2.4340000000
C                 6.3120000000       10.4170000000        2.9240000000
C                 5.3330000000       11.4570000000        2.5120000000
N                 5.0780000000       12.5840000000        3.2620000000
C                 4.5950000000       11.5910000000        1.3750000000
C                 4.2080000000       13.3460000000        2.6220000000
N                 3.9050000000       12.7690000000        1.4710000000
H                 7.4360000000        9.5820000000        0.5640000000
H                 8.0350000000       11.6510000000        2.6190000000
H                 5.9400000000        9.4490000000        2.5880000000
H                 6.3840000000       10.4310000000        4.0120000000
H                 5.4950000000       12.7970000000        4.1680000000
H                 4.5610000000       10.8950000000        0.5490000000
H                 3.8100000000       14.2840000000        2.9800000000
N                 9.5850000000       10.0550000000        3.7240000000
C                10.6130000000        9.1790000000        4.2690000000
C                 9.9850000000        8.3770000000        5.4020000000
O                 9.5900000000        8.9320000000        6.4290000000
C                11.8400000000        9.9670000000        4.7420000000
C                12.3930000000       10.8150000000        3.5980000000
C                11.5100000000       10.8390000000        5.9440000000
H                 9.6330000000       11.0140000000        4.0690000000
H                10.9440000000        8.4830000000        3.4980000000
H                12.6070000000        9.2580000000        5.0550000000
H                13.2630000000       11.3670000000        3.9540000000
H                12.6800000000       10.1590000000        2.7760000000
H                11.6220000000       11.5100000000        3.2670000000
H                12.4070000000       11.3800000000        6.2470000000
H                10.7260000000       11.5440000000        5.6660000000
H                11.1660000000       10.2030000000        6.7600000000
O                10.3420000000       16.5790000000        2.7890000000
H                10.9330000000       16.3660000000        2.2320000000
H                 9.7950000000       17.0720000000        2.3850000000
O                 9.6010000000       13.0690000000        4.0220000000
H                10.2710000000       13.5760000000        4.0350000000
H                 9.1430000000       13.2540000000        4.7010000000
H                14.6831167322       15.5583991490        3.7295954248
H                16.1313548709       12.2471858549        3.6709745706
H                 7.0211497045        9.9591070934        8.3241771895
H                 5.6921907197       13.2361901110        7.3480962777
H                 5.7700223791       15.3816430194        5.1781255754
H                 5.6851189016       18.9341496459        3.3431482230
H                10.4764025838       18.1306519147        5.3928820575
H                10.1861468189       18.2883940890        9.1690583897
H                 7.0608340279       11.0865240579        0.5355286539
H                 9.8883397437        7.3851731254        5.3187158740
