 285 
 
N                14.4178935726       15.1662956369      -11.8384747227
C                15.3507705313       16.2910320373      -11.4802488850
C                14.9482518633       16.7279809664      -10.0483834728
O                13.7438792793       16.7229300828       -9.8005621175
C                15.1552187689       17.4700780310      -12.4480518440
C                16.3626042375       18.4050679834      -12.4826857236
C                16.3866440170       19.3547340998      -13.7470600475
O                15.2808903083       19.5612695662      -14.2920228890
O                17.4943786927       19.8192496386      -14.0973381442
H                14.0463948984       15.3084739417      -12.7869384741
H                14.9050507088       14.2111453630      -11.8057654470
H                13.6171570696       15.2411688156      -11.1804322718
H                16.3820655232       15.9424096312      -11.5209096064
H                15.0365449503       17.0920213570      -13.4672210672
H                14.2666462250       18.0419775475      -12.1864854568
H                16.3896641523       19.0586047673      -11.6070281595
H                17.3008488665       17.8487401704      -12.5163893744
N                15.9081780423       16.9485577871       -9.1835354937
C                15.6744537460       17.3250476071       -7.8105868571
C                15.9824166824       18.8216241758       -7.6652887007
O                16.8813090934       19.3874912711       -8.2940263036
H                16.8800896163       16.9815736107       -9.4738644187
H                14.6152221405       17.1704601878       -7.5910949854
C                16.5048991563       16.3830203749       -6.9190393212
C                16.2738661299       14.9921266932       -7.4191591708
C                16.9165849483       14.5186599836       -8.5640682803
C                15.4215443803       14.1407168887       -6.7483978599
C                16.6545507989       13.2614047595       -9.0614050569
C                15.2131415458       12.8498205630       -7.1879769109
C                15.7989348671       12.4191791997       -8.3727955893
O                15.5334470713       11.1827137625       -8.8960617534
H                17.5574941125       16.6500756058       -7.0122629836
H                16.1979097763       16.5034578233       -5.8824761049
H                17.6716620850       15.1129329568       -9.0409662078
H                14.9361555028       14.4822792398       -5.8464168239
H                17.1179992429       12.9091670439       -9.9658559971
H                14.5895684085       12.1811248046       -6.6160706311
H                15.1315693516       10.6210063545       -8.2187132267
N                15.0829815288       19.4706553194       -6.8859080383
C                15.2175665710       20.9061465453       -6.6168508538
C                15.1981698634       21.1069595827       -5.0987807892
O                14.6423919658       20.2537170009       -4.3898680697
C                14.0071258909       21.6104985117       -7.2142683258
C                13.8675178325       21.4279119069       -8.6790256469
C                13.1303282449       20.3635757868       -9.1967784114
C                14.5293052782       22.2962658147       -9.5351779956
C                13.1046586778       20.1775655079      -10.5586113637
C                14.5412044256       22.0545764092      -10.9054402570
C                13.8259414918       20.9995627154      -11.4106639936
H                14.3475610294       18.9790134074       -6.3894115075
H                16.1507792336       21.2543388588       -7.0654240256
H                13.1219573018       21.2166049521       -6.7046559763
H                14.0696998515       22.6774543949       -6.9747771567
H                12.6096222955       19.6936768976       -8.5315956598
H                15.0899843229       23.1183834990       -9.1167832824
H                12.5545867397       19.3423168644      -10.9630926569
H                15.1118170502       22.6966658370      -11.5597845090
H                13.8617600065       20.7869623307      -12.4695133791
N                15.7959830219       22.1339121939       -4.5067306469
C                15.7776849395       22.4140075178       -3.1324384714
C                15.0606792563       23.7326993241       -2.9024502429
O                15.1997812760       24.7028667808       -3.6744164963
H                16.1661152402       22.8616872595       -5.1107281639
H                15.2356762786       21.6094378793       -2.6242260376
C                17.1773127722       22.4332617341       -2.6423363979
O                17.0574479238       22.4100850191       -1.2626621930
C                17.9055351924       23.6014343954       -3.2699406451
H                17.6615732719       21.4893508557       -2.9403317762
H                17.3043163425       23.2690470985       -0.8915835748
H                18.9429360166       23.6020268552       -2.9461687946
H                17.8884799917       23.5271387073       -4.3504004609
H                17.4644899005       24.5415608413       -2.9599973059
O                11.4946432908       17.4019647933      -13.6369379428
H                12.2496553070       17.9558238476      -13.8585561618
H                11.2000575736       17.0089775877      -14.4623760445
O                16.7701552082       24.5946498817       -6.2775501111
H                17.0467292171       25.4127650157       -6.7020336515
H                16.1901655116       24.8710947586       -5.5525334827
O                18.9531759013       16.7583732966       -8.9846998088
H                19.8097976114       16.5538907194       -9.3650040582
H                18.8972326387       17.7185773609       -8.9212463292
O                15.7161763379       12.8496218052      -12.0897557180
H                16.6077534802       12.9507759425      -12.4322346819
H                15.2401563445       12.2934489010      -12.7176224442
O                10.8323627231       19.9500919058      -16.6567809248
H                10.7177720499       18.9982159244      -16.6237472113
H                 9.9378632673       20.3289970837      -16.6789182393
O                20.9053501183       16.7701552082       -6.2775501111
H                20.0872349843       17.0467292171       -6.7020336515
H                20.6289052414       16.1901655116       -5.5525334827
O                18.4514057727       18.9707108818       -5.1256359416
H                19.3660325251       19.2002020934       -5.3120414063
H                18.0273777300       19.7601313880       -4.7810057617
O                 7.6693422651       18.1913635694      -13.6037357108
H                 8.4890742930       17.6916602671      -13.7098175202
H                 7.1850983627       17.7459575072      -12.8896644080
O                16.7583732966       26.5468240987       -8.9846998088
H                16.5538907194       25.6902023886       -9.3650040582
H                17.7185773609       26.6027673613       -8.9212463292
N                26.0293446806       15.0829815288       -6.8859080383
C                24.5938534547       15.2175665710       -6.6168508538
C                24.3930404173       15.1981698634       -5.0987807892
O                25.2462829991       14.6423919658       -4.3898680697
C                23.8895014883       14.0071258909       -7.2142683258
C                24.0720880931       13.8675178325       -8.6790256469
C                25.1364242132       13.1303282449       -9.1967784114
C                23.2037341853       14.5293052782       -9.5351779956
C                25.3224344921       13.1046586778      -10.5586113637
C                23.4454235908       14.5412044256      -10.9054402570
C                24.5004372846       13.8259414918      -11.4106639936
H                26.5209865926       14.3475610294       -6.3894115075
H                24.2456611412       16.1507792336       -7.0654240256
H                24.2833950479       13.1219573018       -6.7046559763
H                22.8225456051       14.0696998515       -6.9747771567
H                25.8063231024       12.6096222955       -8.5315956598
H                22.3816165010       15.0899843229       -9.1167832824
H                26.1576831356       12.5545867397      -10.9630926569
H                22.8033341630       15.1118170502      -11.5597845090
H                24.7130376693       13.8617600065      -12.4695133791
N                14.1698353883       18.9709645232       -0.2005755709
C                14.4572672799       18.4128172086       -1.5174143509
C                13.1489649053       17.8688300780       -2.1368706949
O                12.5038157208       17.0501977361       -1.5005606621
C                15.5427181451       17.3629259631       -1.3983758145
C                15.9422516682       16.9785005477       -2.7946640620
C                17.1947040280       16.0972226897       -2.7218524669
O                17.1900099202       15.0505710595       -2.1304690579
N                18.2457740780       16.5253190484       -3.3714275968
H                14.2248942903       18.2992976177        0.5604730853
H                14.8093558865       19.2462115192       -2.1387567403
H                16.3836480987       17.7869655370       -0.8485616458
H                15.1671225811       16.4919639314       -0.8591520816
H                15.1521744815       16.3851384866       -3.2568948000
H                16.1379704207       17.8554733472       -3.4103497106
H                18.2228315221       17.3449275822       -3.9683101312
H                19.0775574413       15.9439453376       -3.4371569436
N                12.8843780016       18.2679765708       -3.3651690720
C                11.6044658063       18.0739497073       -4.0341428194
C                11.9623362009       17.4264854694       -5.3787008651
O                12.9019263514       17.8960356310       -6.0386666115
C                10.8657893301       19.3794873928       -4.2543104293
C                10.3908222163       19.9323061072       -2.8988891794
C                 9.5985523393       19.1422061812       -5.1188426093
C                10.0988415011       21.4517600412       -2.8996101672
H                13.4865450820       18.9651086218       -3.7998087964
H                11.0207768181       17.3977260418       -3.4025230715
H                11.5344709021       20.0928907086       -4.7391992680
H                 9.4987139328       19.3906379013       -2.5826090906
H                11.1629574632       19.7555810472       -2.1454271104
H                 8.9905093645       20.0381478172       -5.1436909229
H                 9.8598073984       18.8843566098       -6.1425807098
H                 9.0124907017       18.3348955113       -4.6913721787
H                 9.7041674816       21.7540561011       -1.9360093897
H                11.0193634448       21.9937492481       -3.0922384556
H                 9.3706144753       21.7092906776       -3.6631230336
N                11.2309201753       16.3931035341       -5.7726238866
C                11.4253128935       15.7447546915       -7.0622879925
C                10.4326541002       16.2554660831       -8.0861422677
O                 9.2395904861       16.1757083619       -7.8525496729
C                11.1906808492       14.2329827872       -6.8323698630
C                11.9687232166       13.3884683324       -7.8630962208
C                11.7367012739       11.8552275451       -7.6933621721
N                12.4483515806       11.1547978968       -8.7583335104
C                12.3094627542        9.8562893598       -9.0438027704
N                11.3698529053        9.1411444203       -8.4133017040
N                12.9997051443        9.3669854750      -10.0774657823
H                10.4275454666       16.0641507627       -5.2555526587
H                12.4558382549       15.9386375193       -7.3709441900
H                11.5210032936       13.9640607478       -5.8292002658
H                10.1215424536       14.0314424400       -6.8983532547
H                11.6307741609       13.6682090134       -8.8610950542
H                13.0292739339       13.6039394330       -7.7536132775
H                12.0839257227       11.5303524904       -6.7081427844
H                10.6709911689       11.6373686573       -7.7671920618
H                13.2005833768       11.6693055433       -9.1959811337
H                11.1075553838        9.4000074429       -7.4722468841
H                11.3124885137        8.1435828235       -8.5949408858
H                13.6697657228        9.9321690386      -10.5719450743
H                12.9112733611        8.3914653453      -10.3091728345
N                10.9748785870       16.7589537978       -9.1888908599
C                10.0773991028       17.1325135305      -10.2721388565
C                 9.8631669683       18.6190566991      -10.3431127817
O                 9.5933920925       19.3055854393       -9.3678624617
H                11.9734934914       16.8947582316       -9.2937119385
H                10.4905233538       16.7664009643      -11.2148743506
H                 9.1130615733       16.6581886863      -10.0765255595
N                10.0835328493       19.1721215759      -11.5438541963
C                 9.9373419603       20.6233496417      -11.7584608485
C                 8.5227805899       21.1398767369      -11.4715350059
O                 8.4183050737       22.1862392620      -10.8106143147
H                10.3766857883       18.6095337807      -12.3391715128
H                10.5876084489       21.1464012753      -11.0491875443
C                10.3112235883       20.8918047886      -13.2244006647
C                10.2152342526       22.3375000709      -13.7224782543
C                11.5746063138       22.9479192124      -14.0932257674
N                12.1596508072       23.6801679692      -12.9839598674
C                12.1168150246       24.9936804770      -12.7999555033
N                11.7003295176       25.8285314287      -13.7375753622
N                12.6518793679       25.5048853805      -11.6827519692
H                11.3288012000       20.5293181200      -13.3760615164
H                 9.6375614107       20.2820850007      -13.8293802895
H                 9.5826968175       22.3709408873      -14.6065661920
H                 9.7142896388       22.9732756357      -12.9899386349
H                12.2781634177       22.1646759516      -14.3804457360
H                11.4520891686       23.6133084779      -14.9444958970
H                12.4953456950       23.1072540498      -12.2187317522
H                11.2859633120       25.5154423489      -14.6139584729
H                11.6000254497       26.8058127004      -13.5273604001
H                12.9351922091       24.9077984593      -10.9220740632
H                12.5851269192       26.4906014436      -11.4947998387
N                 8.1077592200       21.1642515221       -7.6640046578
C                 8.8705887420       22.2511512105       -7.1218964945
C                 8.2504417281       23.5933399836       -7.3431877928
O                 8.0686813462       24.4439635945       -6.4575375517
C                10.3225874700       22.2638526303       -7.7056225785
C                11.1111555308       23.5507723676       -7.3856741216
C                11.6233509402       23.8466369571       -6.1279660927
C                11.3531809917       24.4823045355       -8.3794341240
C                12.2983987006       24.9972484952       -5.7573735673
C                12.0119739838       25.6745523822       -8.0424220043
C                12.4293094004       25.9480285585       -6.7445722503
H                 8.5023273535       20.6132018392       -8.4235898092
H                 8.9322776341       22.1419956601       -6.0284137826
H                10.8450121025       21.3908881980       -7.3216416056
H                10.2325889495       22.1824090200       -8.7884331391
H                11.4728001047       23.0893749429       -5.3616465334
H                10.9971638894       24.3321298514       -9.3861152566
H                12.6924386062       25.1245859328       -4.7662383521
H                12.1444233124       26.4249065774       -8.8052428127
H                12.8866657441       26.8962905914       -6.5466450121
N                24.3357484779        8.1077592200       -7.6640046578
C                23.2488487895        8.8705887420       -7.1218964945
C                21.9066600164        8.2504417281       -7.3431877928
O                21.0560364055        8.0686813462       -6.4575375517
C                23.2361473697       10.3225874700       -7.7056225785
C                21.9492276324       11.1111555308       -7.3856741216
C                21.6533630429       11.6233509402       -6.1279660927
C                21.0176954645       11.3531809917       -8.3794341240
C                20.5027515048       12.2983987006       -5.7573735673
C                19.8254476178       12.0119739838       -8.0424220043
C                19.5519714415       12.4293094004       -6.7445722503
H                24.8867981608        8.5023273535       -8.4235898092
H                23.3580043399        8.9322776341       -6.0284137826
H                24.1091118020       10.8450121025       -7.3216416056
H                23.3175909800       10.2325889495       -8.7884331391
H                22.4106250571       11.4728001047       -5.3616465334
H                21.1678701486       10.9971638894       -9.3861152566
H                20.3754140672       12.6924386062       -4.7662383521
H                19.0750934226       12.1444233124       -8.8052428127
H                18.6037094086       12.8866657441       -6.5466450121
N                19.3383790152        7.0247349250       -4.4750843841
C                17.9977234056        7.6688637639       -4.4494224330
C                16.9094818533        6.5659942301       -4.4140948014
O                15.9267105834        6.6643699789       -3.6497086257
H                19.9151776745        7.1806727395       -5.2925977408
H                17.9044827087        8.2287268646       -3.5155232399
C                17.6787498807        8.6203537831       -5.6359634096
C                16.2283113817        9.1471508138       -5.7220212336
C                15.8019634741       10.1701947212       -4.6450334002
N                14.3567622333       10.4622696751       -4.7250477065
C                13.6542807525       11.3474649302       -4.0079217293
N                14.2263186817       12.3155807889       -3.3015003794
N                12.3221133373       11.4003761917       -4.1740498457
H                18.3732739537        9.4601319189       -5.5924686586
H                17.8746814550        8.0622487923       -6.5550581158
H                16.1411252196        9.6079581711       -6.7050698991
H                15.5403601108        8.2989312446       -5.6988122283
H                16.0259760429        9.7648401644       -3.6581558346
H                16.3493830177       11.1047331529       -4.7863783499
H                13.7773172832        9.7190021586       -5.1406365984
H                15.1401264248       12.1607153264       -2.8976261583
H                13.6254774352       12.9512313345       -2.7749222480
H                11.8802441063       10.5982781644       -4.6035936610
H                11.7553014302       12.0145397391       -3.6016204907
H                14.4559629395       23.8420840785       -2.1135566178
H                26.1564156226       14.9127671010       -7.7604822342
H                23.5853600029       15.6285189579       -4.6957274365
H                14.7595879802       19.6253907607       -0.0164066809
H                 7.7282860463       20.6377492406      -11.8130703592
H                 7.9377242405       20.5637309896       -7.0155733231
H                 7.9479796376       23.8596218353       -8.2583985113
H                24.9362690104        7.9377242405       -7.0155733231
H                21.6403781647        7.9479796376       -8.2583985113
H                19.8268567460        7.3198806393       -3.7791831599
H                16.9899020990        5.7650209773       -5.0073691329
