 70 
 
N                16.2200000000        1.7410000000       18.3730000000
C                15.4860000000        2.2090000000       19.5540000000
C                13.9950000000        1.9420000000       19.4630000000
O                13.4140000000        1.8650000000       18.3800000000
C                15.7520000000        3.7210000000       19.5830000000
C                16.3320000000        4.0800000000       18.2720000000
C                16.6630000000        2.8350000000       17.4930000000
H                15.8940000000        1.7320000000       20.4450000000
H                14.8130000000        4.2510000000       19.7440000000
H                16.4520000000        3.9500000000       20.3860000000
H                15.6040000000        4.6760000000       17.7210000000
H                17.2390000000        4.6610000000       18.4400000000
H                16.1190000000        2.8150000000       16.5490000000
H                17.7350000000        2.7700000000       17.3070000000
N                13.1530000000       10.1170000000       17.9290000000
C                13.5260000000        9.6250000000       19.2500000000
C                13.6870000000       10.7740000000       20.2320000000
O                13.1450000000       10.7410000000       21.3410000000
C                14.8190000000        8.8040000000       19.1620000000
C                15.1670000000        8.0660000000       20.4530000000
C                16.6490000000        7.6990000000       20.5630000000
N                17.4600000000        8.9090000000       20.5890000000
C                17.6030000000        9.6960000000       21.6500000000
N                17.0390000000        9.3650000000       22.8130000000
N                18.3200000000       10.8070000000       21.5520000000
H                13.8090000000        9.8770000000       17.1860000000
H                12.7360000000        8.9700000000       19.6170000000
H                14.7090000000        8.0600000000       18.3730000000
H                15.6450000000        9.4750000000       18.9290000000
H                14.9170000000        8.7030000000       21.3020000000
H                14.5900000000        7.1420000000       20.4980000000
H                16.8220000000        7.1420000000       21.4840000000
H                16.9440000000        7.0980000000       19.7020000000
H                17.9520000000        9.1700000000       19.7340000000
H                16.4960000000        8.5050000000       22.8900000000
H                17.1510000000        9.9720000000       23.6250000000
H                18.7590000000       11.0540000000       20.6650000000
H                18.4330000000       11.4140000000       22.3640000000
N                11.3810000000        6.6900000000       25.7650000000
C                12.1330000000        5.5900000000       25.1860000000
C                12.0590000000        4.3680000000       26.0900000000
O                12.2360000000        4.4830000000       27.3060000000
C                13.5840000000        6.0190000000       24.9670000000
C                14.4000000000        5.0000000000       24.2390000000
C                15.6870000000        5.5640000000       23.6800000000
O                15.9840000000        6.7480000000       23.8320000000
N                16.4640000000        4.7090000000       23.0320000000
H                11.8370000000        7.1200000000       26.5690000000
H                11.6980000000        5.3020000000       24.2290000000
H                13.5950000000        6.9380000000       24.3800000000
H                14.0510000000        6.1910000000       25.9370000000
H                14.6570000000        4.1950000000       24.9270000000
H                13.8160000000        4.6070000000       23.4070000000
H                16.1800000000        3.7340000000       22.9350000000
H                17.3470000000        5.0250000000       22.6300000000
O                18.4440000000        7.2200000000       17.2110000000
H                19.0590000000        7.7920000000       17.2130000000
H                17.7220000000        7.6400000000       17.3030000000
O                19.7120000000        5.4740000000       18.9730000000
H                20.3840000000        5.9780000000       18.9810000000
H                19.0350000000        5.9710000000       18.9790000000
O                19.0780000000        5.3780000000       21.7960000000
H                19.8640000000        5.6660000000       21.7280000000
H                18.6160000000        5.8000000000       21.2360000000
H                16.8308578137        1.1287672624       18.6220457919
H                13.4564936695        1.8231838818       20.2972024107
H                12.3555333522        9.7722017815       17.6941359239
H                14.2378644659       11.5707153349       19.9834179908
H                11.2661047137        7.3337399555       25.1466166699
H                11.8663993331        3.4678922860       25.6992173415
