 188 
 
N                -2.3550000000       11.3630000000       11.8110000000
C                -1.2740000000       12.3310000000       11.7050000000
C                -1.1600000000       13.1850000000       12.9620000000
O                -2.1530000000       13.7230000000       13.4580000000
C                -1.4390000000       13.2280000000       10.4740000000
C                -0.3850000000       14.2950000000       10.3670000000
C                -0.3480000000       14.9620000000        9.0090000000
O                -0.9420000000       14.4830000000        8.0440000000
N                 0.3590000000       16.0760000000        8.9280000000
H                -3.2790000000       11.7770000000       11.9390000000
H                -0.3380000000       11.7800000000       11.6090000000
H                -1.3810000000       12.6100000000        9.5780000000
H                -2.4100000000       13.7210000000       10.5250000000
H                -0.5840000000       15.0650000000       11.1130000000
H                 0.5920000000       13.8460000000       10.5460000000
H                 0.8390000000       16.4370000000        9.7530000000
H                 0.4250000000       16.5750000000        8.0410000000
N                 5.8750000000        7.3730000000        9.0050000000
C                 6.4360000000        8.1280000000        7.8980000000
C                 6.3770000000        9.6170000000        8.2150000000
O                 5.5570000000       10.0720000000        9.0100000000
C                 5.6460000000        7.8090000000        6.6220000000
O                 6.2570000000        8.3720000000        5.4980000000
H                 5.0240000000        7.7850000000        9.3880000000
H                 7.4870000000        7.8820000000        7.7490000000
H                 5.6010000000        6.7270000000        6.4950000000
H                 4.6390000000        8.2160000000        6.7180000000
H                 5.7400000000        8.1580000000        4.6930000000
N                 7.2460000000       10.3870000000        7.5650000000
C                 7.3040000000       11.8210000000        7.8140000000
C                 6.3200000000       12.5740000000        6.9390000000
O                 6.2920000000       12.3720000000        5.7250000000
C                 8.6920000000       12.3710000000        7.5340000000
C                 9.7220000000       11.9630000000        8.5310000000
S                 9.3600000000       12.4130000000       10.2740000000
C                 9.5260000000       14.2030000000       10.1930000000
H                 7.0560000000       11.9690000000        8.8650000000
H                 9.0180000000       12.0140000000        6.5570000000
H                 8.6430000000       13.4600000000        7.5360000000
H                 9.8270000000       10.8790000000        8.4920000000
H                10.6660000000       12.4380000000        8.2630000000
H                 9.3340000000       14.6220000000       11.1810000000
H                10.5380000000       14.4510000000        9.8740000000
H                 8.8040000000       14.5940000000        9.4760000000
H                 7.9120000000       10.0500000000        6.8700000000
N                 5.5420000000       13.4650000000        7.5540000000
C                 4.7640000000       14.4380000000        6.8040000000
C                 5.7060000000       15.5010000000        6.2680000000
O                 6.7850000000       15.7170000000        6.8080000000
C                 3.7160000000       15.0840000000        7.7160000000
H                 5.4320000000       13.5350000000        8.5660000000
H                 4.2390000000       13.9630000000        5.9750000000
H                 3.1430000000       15.8100000000        7.1390000000
H                 3.0540000000       14.3080000000        8.1010000000
H                 4.2230000000       15.5830000000        8.5420000000
N                 5.3080000000       16.1540000000        5.1780000000
C                 6.1400000000       17.2180000000        4.6340000000
C                 5.2890000000       18.1120000000        3.7520000000
O                 4.1050000000       17.8550000000        3.5180000000
C                 7.3930000000       16.6630000000        3.9240000000
C                 7.0580000000       15.8820000000        2.6700000000
O                 6.3040000000       16.3600000000        1.8320000000
N                 7.5970000000       14.6850000000        2.5390000000
H                 4.4430000000       15.9730000000        4.6690000000
H                 6.4950000000       17.8390000000        5.4560000000
H                 8.0380000000       17.4940000000        3.6410000000
H                 7.9210000000       15.9960000000        4.6050000000
H                 7.3990000000       14.1240000000        1.7100000000
H                 8.2120000000       14.3200000000        3.2660000000
N                11.1190000000       18.2100000000        6.0180000000
C                10.7360000000       17.4620000000        7.2060000000
C                10.8920000000       18.3090000000        8.4610000000
O                11.8780000000       19.0260000000        8.6250000000
C                11.6380000000       16.2440000000        7.3380000000
C                11.4580000000       15.2970000000        6.1940000000
O                10.4180000000       14.6520000000        6.0530000000
N                12.4570000000       15.2300000000        5.3400000000
H                11.9900000000       17.9060000000        5.5840000000
H                 9.6930000000       17.1570000000        7.1170000000
H                12.6790000000       16.5670000000        7.3540000000
H                11.3970000000       15.7160000000        8.2610000000
H                12.4000000000       14.6040000000        4.5370000000
H                13.2880000000       15.8040000000        5.4810000000
N                 6.2170000000       16.6530000000       12.1650000000
C                 4.9550000000       15.9860000000       11.8990000000
C                 5.1810000000       14.6450000000       11.2160000000
O                 6.0950000000       14.4770000000       10.4070000000
C                 4.0380000000       16.8590000000       11.0490000000
C                 3.5110000000       18.0610000000       11.7880000000
C                 2.5210000000       18.8060000000       10.9550000000
O                 1.5450000000       18.2340000000       10.4650000000
N                 2.8000000000       20.0760000000       10.7230000000
H                 6.4430000000       17.4040000000       11.5130000000
H                 4.4500000000       15.8020000000       12.8470000000
H                 4.5940000000       17.2150000000       10.1820000000
H                 3.1840000000       16.2630000000       10.7250000000
H                 3.0180000000       17.7370000000       12.7040000000
H                 4.3370000000       18.7320000000       12.0260000000
H                 3.6500000000       20.4900000000       11.1060000000
H                 2.1650000000       20.6430000000       10.1610000000
N                 4.3430000000       13.6850000000       11.5890000000
C                 4.4810000000       12.3060000000       11.1510000000
C                 3.0810000000       11.7510000000       10.9780000000
O                 2.0940000000       12.3330000000       11.4440000000
C                 5.2160000000       11.4630000000       12.2160000000
C                 4.4860000000       11.4210000000       13.5350000000
C                 3.4910000000       10.4820000000       13.7780000000
C                 4.7300000000       12.3710000000       14.4960000000
C                 2.7800000000       10.4900000000       14.9610000000
C                 4.0430000000       12.3590000000       15.6860000000
C                 3.0530000000       11.4440000000       15.9060000000
H                 3.5450000000       13.8370000000       12.2060000000
H                 5.0320000000       12.2620000000       10.2110000000
H                 5.3140000000       10.4400000000       11.8520000000
H                 6.2020000000       11.8930000000       12.3900000000
H                 3.2710000000        9.7350000000       13.0300000000
H                 5.4700000000       13.1360000000       14.3150000000
H                 2.0140000000        9.7500000000       15.1410000000
H                 4.2880000000       13.0790000000       16.4530000000
H                 2.4860000000       11.4720000000       16.8240000000
N                 3.0020000000       10.5830000000       10.3560000000
C                 1.7460000000        9.8630000000       10.3150000000
C                 1.9830000000        8.3750000000       10.4910000000
O                 3.0130000000        7.8250000000       10.0750000000
C                 0.9210000000       10.1640000000        9.0550000000
C                 1.6550000000        9.9280000000        7.7480000000
C                 2.4460000000       10.9080000000        7.1810000000
C                 1.5020000000        8.7320000000        7.0610000000
C                 3.0820000000       10.6930000000        5.9850000000
C                 2.1370000000        8.5180000000        5.8460000000
C                 2.9370000000        9.5000000000        5.3250000000
H                 3.7780000000       10.1220000000        9.8810000000
H                 1.1380000000       10.1820000000       11.1610000000
H                 0.0390000000        9.5240000000        9.0570000000
H                 0.6210000000       11.2120000000        9.0790000000
H                 2.5650000000       11.8550000000        7.6860000000
H                 0.8790000000        7.9550000000        7.4790000000
H                 3.7010000000       11.4690000000        5.5600000000
H                 2.0020000000        7.5860000000        5.3160000000
H                 3.4550000000        9.3340000000        4.3920000000
N                 7.6750000000       10.5230000000        0.8750000000
C                 7.7060000000       10.6540000000        2.3260000000
C                 8.6760000000        9.6180000000        2.8550000000
O                 8.6480000000        8.4510000000        2.4340000000
C                 6.3120000000       10.4170000000        2.9240000000
C                 5.3330000000       11.4570000000        2.5120000000
N                 5.0780000000       12.5840000000        3.2620000000
C                 4.5950000000       11.5910000000        1.3750000000
C                 4.2080000000       13.3460000000        2.6220000000
N                 3.9050000000       12.7690000000        1.4710000000
H                 7.4360000000        9.5820000000        0.5640000000
H                 8.0350000000       11.6510000000        2.6190000000
H                 5.9400000000        9.4490000000        2.5880000000
H                 6.3840000000       10.4310000000        4.0120000000
H                 5.4950000000       12.7970000000        4.1680000000
H                 4.5610000000       10.8950000000        0.5490000000
H                 3.8100000000       14.2840000000        2.9800000000
O                 7.3200000000       16.8850000000        9.2240000000
H                 7.1230000000       17.4480000000        8.6330000000
H                 6.6130000000       16.4700000000        9.4080000000
O                -2.3600000000       18.5220000000        8.5080000000
H                -1.7020000000       18.9490000000        8.8090000000
H                -3.0410000000       18.9900000000        8.6570000000
O                 2.3230000000       15.5510000000        4.4650000000
H                 2.5790000000       16.2250000000        4.0340000000
H                 1.4880000000       15.6090000000        4.5320000000
O                 3.7710000000       16.9200000000        0.5840000000
H                 4.4080000000       17.4270000000        0.7920000000
H                 3.0750000000       17.3900000000        0.5910000000
O                 0.0760000000       19.3070000000        7.5250000000
H                 0.7960000000       19.7240000000        7.4060000000
H                -0.5430000000       19.8140000000        7.2690000000
O                -0.6810000000       12.5510000000        2.2310000000
H                -0.0070000000       13.0520000000        2.2310000000
H                -1.3560000000       13.0510000000        2.2310000000
O                 0.6720000000       17.1430000000        5.9400000000
H                 1.3460000000       17.6440000000        5.9400000000
H                -0.0030000000       17.6430000000        5.9400000000
H                -2.3903320588       10.8686439458       11.0597585359
H                -0.2697564669       13.3165236883       13.3980825279
H                 5.6707881411        6.5412401448        8.7284623714
H                 5.6851189016       18.9341496459        3.3431482230
H                10.4764025838       18.1306519147        5.3928820575
H                10.1861468189       18.2883940890        9.1690583897
H                 6.1965556254       17.0176396878       12.9875691008
H                 1.2986096450        7.8108875114       10.9529382450
H                 7.0608340279       11.0865240579        0.5355286539
H                 9.3480489114        9.8715137071        3.5507593413
