 68 
 
N                -6.3190000000        5.7210000000       27.0220000000
C                -6.7280000000        4.7220000000       26.0400000000
C                -5.7780000000        3.5330000000       26.0330000000
O                -6.1970000000        2.3970000000       26.2540000000
C                -6.7820000000        5.3650000000       24.6460000000
C                -7.2030000000        4.4300000000       23.5190000000
C                -8.6020000000        3.9250000000       23.6870000000
C                -7.0470000000        5.1520000000       22.1830000000
H                -6.1532339303        6.5014111998       26.6054907331
H                -7.7290000000        4.3590000000       26.2740000000
H                -7.4980000000        6.1870000000       24.6740000000
H                -5.7890000000        5.7440000000       24.4030000000
H                -6.5590000000        3.5510000000       23.5370000000
H                -8.8430000000        3.2640000000       22.8540000000
H                -8.6710000000        3.3790000000       24.6280000000
H                -9.2860000000        4.7730000000       23.6980000000
H                -7.3490000000        4.4800000000       21.3790000000
H                -7.6800000000        6.0400000000       22.1830000000
H                -6.0030000000        5.4390000000       22.0550000000
H                -5.6010000000        6.3420000000       26.6490000000
O                -8.5340000000        0.9540000000       26.3030000000
H                -7.8600000000        1.4550000000       26.3030000000
H                -9.2090000000        1.4540000000       26.3030000000
O                -5.7350000000        0.5120000000       29.9335000000
H                -6.4090000000        1.0130000000       29.9345000000
H                -5.0600000000        1.0120000000       29.9345000000
N                -3.6420000000       -3.4540000000       26.5275000000
C                -3.6530000000       -2.0010000000       26.3465000000
C                -2.3520000000       -1.3140000000       26.7205000000
O                -2.0220000000       -0.3100000000       26.1015000000
C                -4.8130000000       -1.3030000000       27.0745000000
O                -4.6340000000       -1.4290000000       28.4945000000
C                -6.1600000000       -1.8600000000       26.6255000000
H                -3.6770000000       -3.7740000000       27.4955000000
H                -3.8340000000       -1.8320000000       25.2845000000
H                -4.8230000000       -0.2420000000       26.8265000000
H                -5.3700000000       -0.9860000000       28.9655000000
H                -6.9680000000       -1.3520000000       27.1525000000
H                -6.2870000000       -1.7090000000       25.5535000000
H                -6.2130000000       -2.9270000000       26.8415000000
N                -8.7050000000       -4.6980000000       30.0755000000
C               -10.0880000000       -4.4630000000       30.4645000000
C               -10.8890000000       -5.6940000000       30.0835000000
O               -10.4980000000       -6.4600000000       29.2075000000
C               -10.6770000000       -3.1990000000       29.8255000000
C               -10.7350000000       -3.2160000000       28.3205000000
C               -11.2930000000       -1.9070000000       27.7605000000
C               -11.4600000000       -2.0040000000       26.2565000000
N               -12.1700000000       -0.8230000000       25.6905000000
H                -8.5950000000       -5.4190000000       29.3625000000
H               -10.1420000000       -4.3230000000       31.5445000000
H               -11.6960000000       -3.0700000000       30.1905000000
H               -10.0650000000       -2.3460000000       30.1195000000
H                -9.7300000000       -3.3560000000       27.9235000000
H               -11.3820000000       -4.0300000000       27.9945000000
H               -12.2670000000       -1.7040000000       28.2065000000
H               -10.6050000000       -1.0910000000       27.9825000000
H               -10.4760000000       -2.0640000000       25.7905000000
H               -12.0400000000       -2.8950000000       26.0175000000
H               -12.2650000000       -0.9250000000       24.6595000000
H               -13.1180000000       -0.7430000000       26.1105000000
H               -11.6360000000        0.0450000000       25.8955000000
H                -6.9773070036        5.8369843782       27.6246437696
H                -4.8050881060        3.6714335282       25.8478551789
H                -4.3561885797       -3.8136170624       26.1144500745
H                -1.7858119594       -1.6827153800       27.4577110087
H                -8.3530003391       -3.9388862884       29.7440748779
H               -11.7516156495       -5.8929327467       30.5486021432
