 312 
 
N                -1.2160000000       16.7710000000       20.2330000000
C                -2.3860000000       16.0510000000       19.7660000000
C                -2.1990000000       15.4350000000       18.3830000000
O                -1.2930000000       15.7770000000       17.6280000000
C                -3.6090000000       16.9640000000       19.7370000000
S                -3.6910000000       18.1310000000       18.3860000000
H                -1.0030000000       17.6150000000       19.7010000000
H                -2.5500000000       15.2260000000       20.4590000000
H                -4.4990000000       16.3380000000       19.6750000000
H                -3.6240000000       17.5410000000       20.6610000000
H                -2.6540000000       18.9130000000       18.4380000000
N                -3.0560000000       14.4780000000       18.0760000000
C                -3.2260000000       14.0050000000       16.7100000000
C                -4.3210000000       14.8540000000       16.0860000000
O                -5.4940000000       14.7160000000       16.4380000000
C                -3.6180000000       12.5310000000       16.6980000000
C                -2.4560000000       11.6000000000       16.9130000000
C                -1.9950000000       11.3090000000       18.1940000000
C                -1.7990000000       11.0400000000       15.8210000000
C                -0.9150000000       10.4560000000       18.3610000000
C                -0.7320000000       10.1950000000       15.9970000000
C                -0.2870000000        9.9250000000       17.2570000000
H                -3.6530000000       14.0050000000       18.7550000000
H                -2.2980000000       14.1150000000       16.1480000000
H                -4.3410000000       12.3530000000       17.4940000000
H                -4.0620000000       12.2930000000       15.7310000000
H                -2.4770000000       11.7470000000       19.0550000000
H                -2.1340000000       11.2740000000       14.8210000000
H                -0.5680000000       10.2090000000       19.3530000000
H                -0.2480000000        9.7470000000       15.1420000000
H                 0.5720000000        9.2840000000       17.3910000000
N                -3.9450000000       15.7200000000       15.1590000000
C                -4.8850000000       16.6950000000       14.6400000000
C                -5.6890000000       16.2250000000       13.4370000000
O                -6.6970000000       16.8640000000       13.1150000000
C                -4.1750000000       18.0090000000       14.3160000000
C                -3.1930000000       17.8880000000       13.2050000000
N                -1.9100000000       17.4270000000       13.4020000000
C                -3.3220000000       18.1000000000       11.8730000000
C                -1.2770000000       17.4020000000       12.2410000000
N                -2.1100000000       17.8140000000       11.3040000000
H                -3.0100000000       15.7700000000       14.7540000000
H                -5.6110000000       16.9000000000       15.4270000000
H                -4.9200000000       18.7500000000       14.0260000000
H                -3.6380000000       18.3480000000       15.2020000000
H                -1.5120000000       17.1490000000       14.2990000000
H                -4.2120000000       18.4320000000       11.3580000000
H                -0.2530000000       17.0960000000       12.0860000000
N                -5.2640000000       15.1620000000       12.7550000000
C                -5.9180000000       14.6930000000       11.5370000000
C                -5.9370000000       13.1750000000       11.5880000000
O                -4.8830000000       12.5470000000       11.6910000000
C                -5.1220000000       15.1930000000       10.3300000000
C                -5.7490000000       14.9100000000        8.9590000000
C                -4.9820000000       15.7020000000        7.8880000000
N                -5.4610000000       15.4830000000        6.5260000000
C                -4.8720000000       14.6810000000        5.6440000000
N                -3.7840000000       13.9950000000        5.9760000000
N                -5.3760000000       14.5560000000        4.4280000000
H                -4.4580000000       14.5980000000       13.0260000000
H                -6.9470000000       15.0440000000       11.4620000000
H                -5.0100000000       16.2740000000       10.4180000000
H                -4.1430000000       14.7140000000       10.3430000000
H                -5.6800000000       13.8460000000        8.7310000000
H                -6.7920000000       15.2260000000        8.9550000000
H                -5.0780000000       16.7660000000        8.1050000000
H                -3.9330000000       15.4080000000        7.9200000000
H                -6.3030000000       15.9780000000        6.2320000000
H                -3.3930000000       14.0810000000        6.9140000000
H                -3.3390000000       13.3820000000        5.2930000000
H                -6.2150000000       15.0740000000        4.1680000000
H                -4.9260000000       13.9410000000        3.7500000000
N                -2.3550000000       11.3630000000       11.8110000000
C                -1.2740000000       12.3310000000       11.7050000000
C                -1.1600000000       13.1850000000       12.9620000000
O                -2.1530000000       13.7230000000       13.4580000000
C                -1.4390000000       13.2280000000       10.4740000000
C                -0.3850000000       14.2950000000       10.3670000000
C                -0.3480000000       14.9620000000        9.0090000000
O                -0.9420000000       14.4830000000        8.0440000000
N                 0.3590000000       16.0760000000        8.9280000000
H                -3.2790000000       11.7770000000       11.9390000000
H                -0.3380000000       11.7800000000       11.6090000000
H                -1.3810000000       12.6100000000        9.5780000000
H                -2.4100000000       13.7210000000       10.5250000000
H                -0.5840000000       15.0650000000       11.1130000000
H                 0.5920000000       13.8460000000       10.5460000000
H                 0.8390000000       16.4370000000        9.7530000000
H                 0.4250000000       16.5750000000        8.0410000000
N                 0.0700000000       13.3680000000       13.4190000000
C                 0.3420000000       14.2040000000       14.5720000000
C                 1.6990000000       14.8570000000       14.4990000000
O                 2.2960000000       14.9660000000       13.4180000000
H                -0.4140000000       14.9870000000       14.6360000000
H                 0.3010000000       13.5960000000       15.4760000000
H                 0.9040000000       12.9470000000       13.0080000000
N                 2.4870000000       18.1230000000       15.4880000000
C                 2.5430000000       19.5820000000       15.4630000000
C                 2.4040000000       20.0780000000       16.8880000000
O                 1.3050000000       20.3970000000       17.3490000000
C                 1.4410000000       20.1640000000       14.6030000000
C                 1.4800000000       21.6640000000       14.5590000000
O                 2.3500000000       22.2530000000       15.2520000000
O                 0.6550000000       22.2280000000       13.8010000000
H                 1.5540000000       17.7280000000       15.3670000000
H                 3.5080000000       19.8810000000       15.0540000000
H                 1.5500000000       19.7920000000       13.5840000000
H                 0.4750000000       19.8620000000       15.0080000000
N                -0.6730000000       22.8280000000       16.7750000000
C                -1.7360000000       21.8820000000       17.1190000000
C                -2.7360000000       21.6690000000       15.9980000000
O                -3.8230000000       21.1480000000       16.2290000000
C                -2.4420000000       22.2880000000       18.4210000000
C                -1.5380000000       22.9730000000       19.3860000000
N                -0.4990000000       22.3230000000       20.0270000000
C                -1.4670000000       24.2700000000       19.7750000000
C                 0.1690000000       23.1970000000       20.7550000000
N                -0.4000000000       24.3850000000       20.6230000000
H                 0.2410000000       22.3840000000       16.6890000000
H                -1.2750000000       20.9090000000       17.2900000000
H                -3.2580000000       22.9700000000       18.1830000000
H                -2.8340000000       21.3930000000       18.9050000000
H                -2.1310000000       25.0660000000       19.4710000000
H                 1.0370000000       22.9790000000       21.3590000000
H                -0.0930000000       25.2440000000       21.0790000000
N                -2.3580000000       22.0110000000       14.7730000000
C                -3.3130000000       21.9290000000       13.6750000000
C                -2.7140000000       21.5850000000       12.3240000000
O                -3.4470000000       21.6380000000       11.3250000000
C                -4.0840000000       23.2490000000       13.5450000000
C                -3.2100000000       24.4180000000       13.1720000000
O                -2.0380000000       24.2780000000       12.8840000000
N                -3.8130000000       25.5990000000       13.1420000000
H                -1.4280000000       22.3390000000       14.5130000000
H                -4.0050000000       21.1250000000       13.9250000000
H                -4.8430000000       23.1390000000       12.7710000000
H                -4.5570000000       23.4770000000       14.5000000000
H                -3.2840000000       26.4360000000       12.8970000000
H                -4.8060000000       25.6700000000       13.3630000000
N                -1.4380000000       21.2240000000       12.2450000000
C                -0.8290000000       20.8640000000       10.9860000000
C                 0.0190000000       21.9460000000       10.3570000000
O                 0.6800000000       21.6790000000        9.3480000000
H                -0.8050000000       21.1740000000       13.0430000000
H                -0.1930000000       19.9930000000       11.1420000000
H                -1.6170000000       20.6060000000       10.2780000000
N                 6.2170000000       16.6530000000       12.1650000000
C                 4.9550000000       15.9860000000       11.8990000000
C                 5.1810000000       14.6450000000       11.2160000000
O                 6.0950000000       14.4770000000       10.4070000000
C                 4.0380000000       16.8590000000       11.0490000000
C                 3.5110000000       18.0610000000       11.7880000000
C                 2.5210000000       18.8060000000       10.9550000000
O                 1.5450000000       18.2340000000       10.4650000000
N                 2.8000000000       20.0760000000       10.7230000000
H                 6.4430000000       17.4040000000       11.5130000000
H                 4.4500000000       15.8020000000       12.8470000000
H                 4.5940000000       17.2150000000       10.1820000000
H                 3.1840000000       16.2630000000       10.7250000000
H                 3.0180000000       17.7370000000       12.7040000000
H                 4.3370000000       18.7320000000       12.0260000000
H                 3.6500000000       20.4900000000       11.1060000000
H                 2.1650000000       20.6430000000       10.1610000000
N               -11.7260000000        9.4440000000       14.1790000000
C               -11.5230000000       10.2460000000       12.9940000000
C               -12.7810000000       10.3860000000       12.1700000000
O               -13.8660000000        9.9630000000       12.5540000000
H               -11.5160000000        8.4550000000       14.0470000000
H               -11.1910000000       11.2420000000       13.2860000000
H               -10.7560000000        9.7840000000       12.3730000000
N               -12.6010000000       10.9760000000       10.9920000000
C               -13.7010000000       11.2230000000       10.0700000000
C               -13.1340000000       11.4190000000        8.6710000000
O               -11.9280000000       11.5190000000        8.4750000000
C               -14.4780000000       12.4620000000       10.4920000000
O               -13.6840000000       13.6180000000       10.3190000000
H               -11.6970000000       11.2970000000       10.6460000000
H               -14.3630000000       10.3570000000       10.0580000000
H               -15.3740000000       12.5490000000        9.8780000000
H               -14.7530000000       12.3710000000       11.5430000000
H               -12.8730000000       13.5520000000       10.8650000000
N               -13.0660000000       13.9260000000        6.6480000000
C               -12.2960000000       15.1490000000        6.4340000000
C               -11.1340000000       15.2850000000        7.4010000000
O               -10.3920000000       16.2620000000        7.3190000000
C               -13.1900000000       16.3950000000        6.4060000000
C               -13.7620000000       16.7690000000        7.7400000000
O               -13.3690000000       16.2670000000        8.7740000000
N               -14.7030000000       17.6940000000        7.7160000000
H               -13.8550000000       14.0300000000        7.2860000000
H               -11.8630000000       15.1160000000        5.4340000000
H               -12.6000000000       17.2400000000        6.0510000000
H               -14.0240000000       16.2110000000        5.7290000000
H               -15.1400000000       18.0000000000        8.5860000000
H               -14.9940000000       18.1030000000        6.8280000000
N               -10.9380000000       14.3100000000        8.2830000000
C                -9.8220000000       14.3020000000        9.1900000000
C               -10.0650000000       14.9030000000       10.5550000000
O                -9.2570000000       14.6660000000       11.4540000000
H               -11.5530000000       13.5030000000        8.3850000000
H                -9.5100000000       13.2680000000        9.3400000000
H                -9.0040000000       14.8570000000        8.7310000000
N               -11.1390000000       15.6590000000       10.7510000000
C               -11.7220000000       15.1120000000       13.0540000000
O               -12.4370000000       14.1650000000       12.7390000000
C               -11.3930000000       16.2260000000       12.0680000000
C               -12.5350000000       17.2440000000       12.0120000000
C               -12.9090000000       17.8440000000       13.3800000000
C               -11.7190000000       18.5150000000       14.0680000000
C               -12.0710000000       19.0020000000       15.4740000000
N               -12.1930000000       20.4890000000       15.5370000000
H               -11.8320000000       15.8910000000       10.0390000000
H               -10.5050000000       16.7530000000       12.4180000000
H               -12.2390000000       18.0660000000       11.3600000000
H               -13.4220000000       16.7520000000       11.6120000000
H               -13.6860000000       18.5950000000       13.2400000000
H               -13.2720000000       17.0490000000       14.0310000000
H               -10.9010000000       17.7990000000       14.1510000000
H               -11.4020000000       19.3760000000       13.4790000000
H               -13.0250000000       18.5690000000       15.7750000000
H               -11.2870000000       18.6950000000       16.1670000000
H               -12.4330000000       20.7860000000       16.5050000000
H               -11.2930000000       20.9320000000       15.2610000000
H               -12.9400000000       20.8120000000       14.8900000000
N               -11.2000000000       15.2290000000       14.2620000000
C               -11.4680000000       14.2190000000       15.2740000000
C               -12.6630000000       14.6300000000       16.1270000000
O               -12.9070000000       15.8120000000       16.3720000000
C               -10.2270000000       13.9840000000       16.1260000000
O                -9.8510000000       15.1840000000       16.8090000000
C                -9.0800000000       13.5370000000       15.2630000000
H               -10.5990000000       15.9950000000       14.5660000000
H               -11.7210000000       13.2690000000       14.8040000000
H               -10.4470000000       13.2100000000       16.8610000000
H               -10.5810000000       15.4800000000       17.3920000000
H                -8.1950000000       13.3710000000       15.8770000000
H                -9.3370000000       12.6080000000       14.7530000000
H                -8.8550000000       14.2990000000       14.5170000000
N               -10.6040000000       14.8090000000       21.5010000000
C                -9.2220000000       15.2560000000       21.4710000000
C                -8.3200000000       14.0770000000       21.8010000000
O                -8.4340000000       13.4800000000       22.8710000000
C                -9.0330000000       16.3610000000       22.5090000000
C                -7.7440000000       17.1250000000       22.3460000000
C                -7.8120000000       17.9830000000       21.1000000000
C                -6.8110000000       19.1060000000       21.1450000000
N                -6.9630000000       19.9890000000       19.9510000000
H               -11.0800000000       14.9960000000       22.3840000000
H                -8.9650000000       15.6380000000       20.4830000000
H                -9.8550000000       17.0710000000       22.4200000000
H                -9.0320000000       15.9130000000       23.5030000000
H                -7.5870000000       17.7720000000       23.2090000000
H                -6.9120000000       16.4280000000       22.2470000000
H                -7.5970000000       17.3680000000       20.2260000000
H                -8.8090000000       18.4160000000       21.0150000000
H                -6.9730000000       19.7040000000       22.0420000000
H                -5.8010000000       18.6950000000       21.1470000000
H                -6.2680000000       20.7620000000       19.9890000000
H                -6.8100000000       19.4400000000       19.0810000000
H                -7.9200000000       20.3960000000       19.9290000000
O                -0.3260000000       17.5560000000       15.7350000000
H                -0.4230000000       18.2480000000       16.2010000000
H                -0.4290000000       16.9000000000       16.2500000000
O                -7.3750000000       15.2050000000       18.3300000000
H                -6.7010000000       15.7060000000       18.3300000000
H                -8.0500000000       15.7050000000       18.3300000000
O                -2.3600000000       18.5220000000        8.5080000000
H                -1.7020000000       18.9490000000        8.8090000000
H                -3.0410000000       18.9900000000        8.6570000000
O                -7.5480000000       18.0430000000       17.8500000000
H                -6.8970000000       18.3710000000       17.4330000000
H                -8.1600000000       18.6190000000       17.8370000000
O                -6.1810000000       21.0390000000       11.4560000000
H                -5.5050000000       21.5370000000       11.4450000000
H                -6.8540000000       21.5420000000       11.4560000000
O                -7.7800000000       18.0920000000       10.9490000000
H                -7.1060000000       18.5930000000       10.9490000000
H                -8.4550000000       18.5920000000       10.9490000000
O               -15.9400000000       15.5910000000       10.3240000000
H               -15.2660000000       16.0920000000       10.3240000000
H               -16.6150000000       16.0910000000       10.3240000000
O               -15.2850000000       14.5280000000       13.5920000000
H               -14.6110000000       15.0290000000       13.5920000000
H               -15.9600000000       15.0290000000       13.5920000000
O                -6.3930000000       23.0770000000       18.0690000000
H                -5.7150000000       23.3760000000       17.6720000000
H                -6.9700000000       23.6880000000       18.0580000000
O                -6.5240000000       19.9620000000       15.9850000000
H                -5.8500000000       20.4630000000       15.9850000000
H                -7.1990000000       20.4620000000       15.9850000000
O                -9.0040000000       17.3440000000       14.6220000000
H                -8.1720000000       17.4040000000       14.5270000000
H                -9.1620000000       17.4410000000       15.4410000000
O                -7.2430000000       23.8670000000       15.7850000000
H                -6.5660000000       24.3610000000       15.7280000000
H                -7.9140000000       24.3720000000       15.7630000000
H                -1.3398365958       17.0230754697       21.0880569894
H                -6.8066501478       12.6838804364       11.5378981563
H                -2.3903320588       10.8686439458       11.0597585359
H                 2.1296510114       15.2093968963       15.3298767260
H                 2.9965782607       17.7913789745       14.8244056271
H                 3.2117853721       20.1514960067       17.4728770209
H                -0.8625137605       23.2193285444       15.9869984106
H                 0.0391290293       22.8618929380       10.7579176329
H                 6.1965556254       17.0176396878       12.9875691008
H                 4.5797639746       13.8723921963       11.4199422059
H               -11.1937069785        9.7441639370       14.8397312238
H               -13.7495569921       11.4690275445        7.8844970857
H               -13.4002188693       13.6401430076        5.8627716719
H               -13.2722985039       13.9320823028       16.5033857343
H               -11.0692163746       15.2274858924       20.8541280786
H                -7.6257097354       13.7797945439       21.1455383723
