61
Properties=species:S:1:pos:R:3 pbc="F F F"
N      10.07700000      26.34500000      11.55300000 
C       9.93800000      24.89900000      11.73600000 
C       8.53800000      24.40100000      11.46100000 
O       8.42100000      23.32500000      10.82300000 
H      10.41700000      26.89800000      12.31500000 
H      10.56800000      24.38700000      11.03300000 
C      10.39600000      24.56900000      13.15200000 
C      10.06000000      23.17200000      13.62100000 
C      10.75300000      22.84300000      14.92900000 
N      12.16900000      22.55700000      14.73600000 
C      13.17000000      23.41600000      14.84700000 
N      12.99600000      24.63800000      15.31300000 
N      14.39300000      23.06000000      14.46600000 
H      11.46000000      24.72900000      13.17900000 
H       9.94900000      25.28200000      13.83200000 
H       8.99000000      23.08100000      13.76000000 
H      10.33900000      22.44100000      12.87500000 
H      10.64100000      23.64100000      15.63200000 
H      10.31300000      21.96800000      15.35600000 
H      12.38500000      21.63800000      14.43000000 
H      12.15000000      24.91600000      15.77300000 
H      13.74600000      25.29200000      15.19000000 
H      14.55700000      22.20100000      13.99700000 
H      15.11300000      23.74800000      14.48800000 
O      10.82500000      25.58700000      16.74900000 
H      10.87100000      26.51800000      16.55500000 
H       9.91300000      25.27800000      16.77900000 
O       8.29800000      24.29800000      16.57000000 
H       8.27700000      24.12700000      15.63400000 
H       7.43200000      24.56500000      16.86600000 
O      11.50200000      28.09000000      13.60500000 
H      12.28600000      27.56900000      13.76100000 
H      10.98900000      28.16600000      14.40500000 
N      10.07700000      19.15500000      21.64700000 
C       9.93800000      20.60100000      21.46400000 
C       8.53800000      21.09900000      21.73900000 
O       8.42100000      22.17500000      22.37700000 
H      10.41700000      18.60200000      20.88500000 
H      10.56800000      21.11300000      22.16700000 
C      10.39600000      20.93100000      20.04800000 
C      10.06000000      22.32800000      19.57900000 
C      10.75300000      22.65700000      18.27100000 
N      12.16900000      22.94300000      18.46400000 
C      13.17000000      22.08400000      18.35300000 
N      12.99600000      20.86200000      17.88700000 
N      14.39300000      22.44000000      18.73400000 
H      11.46000000      20.77100000      20.02100000 
H       9.94900000      20.21800000      19.36800000 
H       8.99000000      22.41900000      19.44000000 
H      10.33900000      23.05900000      20.32500000 
H      10.64100000      21.85900000      17.56800000 
H      10.31300000      23.53200000      17.84400000 
H      12.38500000      23.86200000      18.77000000 
H      12.15000000      20.58400000      17.42700000 
H      13.74600000      20.20800000      18.01000000 
H      14.55700000      23.29900000      19.20300000 
H      15.11300000      21.75200000      18.71200000 
H      10.65181553      26.50878452      10.88012428 
H       7.74895721      24.92375352      11.78370765 
H      10.65181553      18.99121548      22.31987572 
H       7.74895721      20.57624648      21.41629235 
