61
Properties=species:S:1:pos:R:3 pbc="F F F"
N      10.07700000      26.34500000      11.55300000 
C       9.93800000      24.89900000      11.73600000 
C       8.53800000      24.40100000      11.46100000 
O       8.42100000      23.32500000      10.82300000 
H      10.41700000      26.89800000      12.31500000 
H      10.56800000      24.38700000      11.03300000 
C      10.32700000      24.62000000      13.18500000 
C      10.14600000      23.18900000      13.67600000 
C      11.44800000      22.45800000      13.92900000 
N      11.92200000      21.75000000      12.74700000 
C      12.15100000      20.45200000      12.67500000 
N      11.90000000      19.63500000      13.68200000 
N      12.66500000      19.94500000      11.55900000 
H      11.35400000      24.93100000      13.30700000 
H       9.73100000      25.28300000      13.79600000 
H       9.61400000      23.20800000      14.61300000 
H       9.54700000      22.60600000      12.99500000 
H      12.21400000      23.14900000      14.24200000 
H      11.31100000      21.75000000      14.72400000 
H      12.14700000      22.30500000      11.95200000 
H      11.53000000      19.92200000      14.56500000 
H      12.14200000      18.67800000      13.59800000 
H      12.88400000      20.52800000      10.78600000 
H      12.83900000      18.97300000      11.47000000 
O      10.82500000      25.58700000      16.74900000 
H      10.87100000      26.51800000      16.55500000 
H       9.91300000      25.27800000      16.77900000 
O       8.29800000      24.29800000      16.57000000 
H       8.27700000      24.12700000      15.63400000 
H       7.43200000      24.56500000      16.86600000 
O      11.50200000      28.09000000      13.60500000 
H      12.28600000      27.56900000      13.76100000 
H      10.98900000      28.16600000      14.40500000 
N      10.07700000      19.15500000      21.64700000 
C       9.93800000      20.60100000      21.46400000 
C       8.53800000      21.09900000      21.73900000 
O       8.42100000      22.17500000      22.37700000 
H      10.41700000      18.60200000      20.88500000 
H      10.56800000      21.11300000      22.16700000 
C      10.32700000      20.88000000      20.01500000 
C      10.14600000      22.31100000      19.52400000 
C      11.44800000      23.04200000      19.27100000 
N      11.92200000      23.75000000      20.45300000 
C      12.15100000      25.04800000      20.52500000 
N      11.90000000      25.86500000      19.51800000 
N      12.66500000      25.55500000      21.64100000 
H      11.35400000      20.56900000      19.89300000 
H       9.73100000      20.21700000      19.40400000 
H       9.61400000      22.29200000      18.58700000 
H       9.54700000      22.89400000      20.20500000 
H      12.21400000      22.35100000      18.95800000 
H      11.31100000      23.75000000      18.47600000 
H      12.14700000      23.19500000      21.24800000 
H      11.53000000      25.57800000      18.63500000 
H      12.14200000      26.82200000      19.60200000 
H      12.88400000      24.97200000      22.41400000 
H      12.83900000      26.52700000      21.73000000 
H      10.65181553      26.50878452      10.88012428 
H       7.74895721      24.92375352      11.78370765 
H      10.65181553      18.99121548      22.31987572 
H       7.74895721      20.57624648      21.41629235 
