278
Properties=species:S:1:pos:R:3 pbc="F F F"
N       5.27200000      21.39700000       4.91300000 
C       5.67500000      21.11200000       3.59300000 
C       6.28500000      19.72700000       3.48000000 
O       6.15300000      19.04800000       2.44500000 
C       6.69000000      22.14200000       3.03000000 
C       5.98500000      23.42200000       2.57900000 
C       4.88600000      23.40000000       1.70300000 
C       6.31500000      24.65800000       3.03900000 
C       4.20800000      24.53100000       1.33000000 
C       5.66100000      25.83400000       2.62300000 
C       4.55900000      25.75800000       1.81100000 
H       5.72500000      22.11700000       5.44100000 
H       4.81200000      21.08400000       2.95000000 
H       7.43000000      22.36800000       3.78100000 
H       7.18400000      21.68400000       2.18300000 
H       4.56400000      22.46200000       1.29300000 
H       7.12600000      24.76100000       3.73500000 
H       3.37900000      24.43700000       0.65500000 
H       5.97100000      26.76700000       3.03800000 
H       4.02000000      26.64100000       1.53000000 
N       7.02400000      19.33000000       4.49000000 
C       7.65200000      17.99300000       4.45300000 
C       6.54600000      16.93600000       4.41700000 
O       6.66200000      15.92900000       3.65300000 
H       7.21100000      19.92500000       5.27100000 
H       8.20100000      17.88100000       3.53600000 
C       8.60300000      17.69200000       5.64100000 
C       9.12200000      16.23800000       5.72500000 
C      10.17500000      15.85200000       4.67400000 
N      10.38800000      14.38700000       4.65700000 
C      11.34700000      13.70200000       4.03300000 
N      12.28900000      14.28600000       3.30200000 
N      11.39300000      12.37500000       4.16800000 
H       9.43500000      18.38000000       5.57800000 
H       8.06900000      17.91000000       6.55600000 
H       9.55200000      16.12400000       6.70700000 
H       8.29200000      15.55300000       5.66200000 
H       9.86300000      16.18100000       3.70300000 
H      11.11200000      16.34300000       4.90200000 
H       9.71300000      13.81700000       5.14000000 
H      12.05100000      15.11400000       2.79800000 
H      12.98700000      13.70800000       2.87100000 
H      10.66800000      11.95100000       4.69300000 
H      12.05500000      11.80400000       3.68400000 
N       3.39600000      17.21200000       3.22400000 
C       2.79100000      17.23700000       1.93800000 
C       3.69500000      16.56400000       0.92700000 
O       3.21100000      15.80800000       0.06100000 
C       2.57400000      18.71000000       1.51600000 
C       1.45900000      19.38800000       2.31800000 
C       1.37500000      20.82200000       1.90600000 
C       0.08700000      18.83700000       2.02400000 
H       3.64800000      18.07000000       3.66600000 
H       1.86600000      16.68900000       1.93100000 
H       3.50700000      19.24000000       1.64800000 
H       2.31700000      18.73600000       0.46500000 
H       1.67900000      19.31200000       3.36500000 
H       0.59100000      21.33600000       2.44900000 
H       2.30500000      21.35300000       2.08400000 
H       1.15200000      20.89100000       0.84800000 
H      -0.65200000      19.37000000       2.60700000 
H      -0.15000000      18.96900000       0.98100000 
H      -0.00900000      17.78600000       2.26100000 
N       4.98600000      16.84800000       0.94100000 
C       5.87600000      16.26500000      -0.05700000 
C       5.97400000      14.78300000       0.12500000 
O       5.95600000      13.95100000      -0.84500000 
C       7.25600000      16.86500000       0.07500000 
C       8.22800000      16.47700000      -0.98000000 
O       9.31500000      15.92600000      -0.68200000 
N       7.83900000      16.70700000      -2.17400000 
H       5.36100000      17.48200000       1.62200000 
H       5.45700000      16.42900000      -1.03600000 
H       7.13900000      17.94100000       0.04800000 
H       7.66600000      16.61500000       1.04300000 
H       8.26300000      16.29000000      -2.97800000 
H       6.97900000      17.18800000      -2.33000000 
N       6.03600000      14.30200000       1.36700000 
C       6.06400000      12.85700000       1.58400000 
C       4.80100000      12.18700000       1.12900000 
O       4.81700000      11.03800000       0.64000000 
C       6.21800000      12.41800000       3.06000000 
C       7.57800000      12.71200000       3.64600000 
C       7.67700000      12.39000000       5.12200000 
O       6.61500000      12.04800000       5.73700000 
O       8.82900000      12.50900000       5.64900000 
H       6.08600000      14.91400000       2.16000000 
H       6.86100000      12.43300000       0.99800000 
H       5.45400000      12.90400000       3.64400000 
H       6.03500000      11.35400000       3.08500000 
H       8.35100000      12.16000000       3.12900000 
H       7.80800000      13.76100000       3.54100000 
N       3.64900000      12.81200000       1.34100000 
C       2.36600000      12.26400000       0.93000000 
C       2.32500000      12.13100000      -0.59900000 
O       1.85200000      11.09500000      -1.11300000 
C       1.25900000      13.13700000       1.54300000 
H       3.64100000      13.68600000       1.82600000 
H       2.27700000      11.25500000       1.29200000 
H       0.29300000      12.71700000       1.31800000 
H       1.39400000      13.16100000       2.61200000 
H       1.31900000      14.14300000       1.15900000 
N       2.82300000      13.15500000      -1.35900000 
C       2.86500000      13.08300000      -2.79700000 
C       3.73100000      11.98300000      -3.27100000 
O       3.39800000      11.26100000      -4.23000000 
C       3.23200000      14.40100000      -3.37200000 
C       2.19200000      15.51600000      -3.12000000 
C       2.92000000      16.75300000      -3.56600000 
C       0.92300000      15.26500000      -3.92900000 
H       3.20100000      13.95100000      -0.89100000 
H       1.88300000      12.81200000      -3.15000000 
H       4.18600000      14.71000000      -2.96100000 
H       3.35600000      14.29800000      -4.44100000 
H       1.96500000      15.57200000      -2.06900000 
H       2.30300000      17.63600000      -3.46200000 
H       3.81900000      16.90200000      -2.98500000 
H       3.20000000      16.66200000      -4.60700000 
H       0.23000000      16.08700000      -3.81200000 
H       1.16300000      15.17000000      -4.98100000 
H       0.41900000      14.35900000      -3.61500000 
N       4.92700000      11.79700000      -2.65300000 
C       5.83900000      10.69400000      -3.01100000 
C       5.24400000       9.34200000      -2.70800000 
O       5.37200000       8.42800000      -3.55700000 
C       7.22800000      10.88800000      -2.40500000 
C       7.92100000      12.12500000      -2.93100000 
C       9.31200000      12.23800000      -2.42300000 
O       9.65600000      11.55600000      -1.42800000 
O      10.10100000      13.10000000      -2.96100000 
H       5.19000000      12.41000000      -1.91000000 
H       5.93800000      10.69600000      -4.08200000 
H       7.14600000      10.93800000      -1.32900000 
H       7.81500000      10.01400000      -2.64500000 
H       7.94500000      12.11200000      -4.01100000 
H       7.38900000      13.02100000      -2.63600000 
O       9.08400000      15.33700000      -4.13900000 
H       9.29300000      14.41400000      -3.87400000 
H       9.74000000      15.86600000      -3.68900000 
O      10.18400000      15.21900000       1.74900000 
H       9.94100000      15.50800000       0.86200000 
H       9.42100000      14.87400000       2.20000000 
O      12.29600000      14.23300000      -2.01600000 
H      12.41800000      14.47200000      -1.10500000 
H      11.44700000      13.80300000      -2.20400000 
N      14.21900000      21.79000000       1.89600000 
C      13.46100000      20.60900000       1.48700000 
C      13.77000000      20.21700000       0.09300000 
O      13.68700000      21.02200000      -0.82300000 
C      11.95700000      20.91700000       1.56700000 
C      11.09500000      19.72900000       1.31400000 
C      11.38200000      18.67400000       2.34900000 
C       9.61000000      20.10800000       1.46900000 
H      14.07600000      22.62900000       1.36900000 
H      13.72500000      19.82400000       2.16900000 
H      11.76300000      21.28900000       2.56400000 
H      11.74800000      21.71900000       0.87100000 
H      11.26200000      19.33400000       0.32000000 
H      10.68700000      17.85100000       2.25500000 
H      12.37700000      18.25700000       2.26800000 
H      11.27400000      19.09600000       3.33900000 
H       8.98200000      19.24700000       1.29400000 
H       9.43500000      20.46100000       2.47900000 
H       9.32800000      20.89200000       0.77700000 
N      14.16700000      18.96300000      -0.18700000 
C      14.44600000      18.42200000      -1.51400000 
C      13.16300000      17.88200000      -2.14500000 
O      12.51100000      17.05300000      -1.49800000 
C      15.53300000      17.37500000      -1.40200000 
C      15.95300000      16.97900000      -2.78300000 
C      17.20900000      16.13200000      -2.71300000 
O      17.18900000      15.05600000      -2.12900000 
N      18.25400000      16.53400000      -3.37200000 
H      14.31300000      18.33000000       0.57600000 
H      14.80700000      19.22900000      -2.12800000 
H      16.36300000      17.81700000      -0.86800000 
H      15.18400000      16.52400000      -0.84300000 
H      15.18400000      16.38600000      -3.25700000 
H      16.12600000      17.85000000      -3.39800000 
H      18.24000000      17.37300000      -3.92200000 
H      19.08800000      15.97500000      -3.37800000 
N      12.88100000      18.27400000      -3.37200000 
C      11.60700000      18.07800000      -4.04600000 
C      11.94600000      17.42100000      -5.37200000 
O      12.89500000      17.89300000      -6.04100000 
C      10.86100000      19.38600000      -4.26100000 
C      10.40500000      19.93500000      -2.90900000 
C       9.60000000      19.14400000      -5.11700000 
C      10.11500000      21.45300000      -2.90200000 
H      13.50000000      18.92700000      -3.81600000 
H      11.01400000      17.42500000      -3.43100000 
H      11.52600000      20.08700000      -4.75200000 
H       9.52300000      19.39000000      -2.60000000 
H      11.17000000      19.74900000      -2.17000000 
H       9.00600000      20.04400000      -5.15800000 
H       9.83900000      18.85900000      -6.13100000 
H       9.00500000      18.36200000      -4.66400000 
H       9.76000000      21.76300000      -1.93000000 
H      11.02200000      21.99900000      -3.12700000 
H       9.37000000      21.71300000      -3.63900000 
N      11.22700000      16.38900000      -5.78200000 
C      11.42800000      15.73700000      -7.06400000 
C      10.46500000      16.25700000      -8.08600000 
O       9.24900000      16.17300000      -7.86100000 
C      11.18900000      14.23500000      -6.83700000 
C      11.89400000      13.39400000      -7.90600000 
C      11.69800000      11.87100000      -7.71200000 
N      12.47200000      11.18000000      -8.74900000 
C      12.34100000       9.90500000      -9.08400000 
N      11.44700000       9.15000000      -8.44700000 
N      13.07000000       9.42500000     -10.08600000 
H      10.42800000      16.08100000      -5.28200000 
H      12.44100000      15.91400000      -7.37200000 
H      11.59400000      13.98900000      -5.86800000 
H      10.12600000      14.04200000      -6.81700000 
H      11.52600000      13.66000000      -8.88800000 
H      12.95100000      13.61700000      -7.88200000 
H      12.04100000      11.57300000      -6.73500000 
H      10.65600000      11.61300000      -7.81400000 
H      13.18300000      11.70600000      -9.20400000 
H      11.18500000       9.38300000      -7.52000000 
H      11.34600000       8.19100000      -8.69300000 
H      13.69400000      10.01100000     -10.58800000 
H      13.02900000       8.46400000     -10.32800000 
N       6.34800000      19.92800000      -9.48100000 
C       6.10100000      19.90800000      -8.04800000 
C       6.85000000      20.98400000      -7.30600000 
O       6.30700000      21.63600000      -6.36700000 
C       6.46600000      18.52800000      -7.49700000 
C       6.06500000      18.25800000      -6.02000000 
C       6.45000000      16.81900000      -5.59200000 
N       5.46200000      15.94500000      -6.28300000 
C       5.64300000      14.65000000      -6.38900000 
N       6.78900000      14.15800000      -5.96600000 
N       4.72300000      13.87600000      -6.94100000 
H       6.79500000      19.15400000      -9.92200000 
H       5.05700000      20.10300000      -7.86900000 
H       5.98000000      17.79600000      -8.12800000 
H       7.53000000      18.37800000      -7.60500000 
H       6.57500000      18.96000000      -5.37700000 
H       5.00200000      18.40200000      -5.88600000 
H       7.44300000      16.59300000      -5.93400000 
H       6.37200000      16.68500000      -4.52600000 
H       4.61700000      16.34600000      -6.64800000 
H       7.46600000      14.72200000      -5.50900000 
H       7.00000000      13.18600000      -6.07000000 
H       3.85500000      14.26100000      -7.25000000 
H       4.88600000      12.89900000      -7.13700000 
N       5.27200000      24.10300000      -4.91300000 
C       5.67500000      24.38800000      -3.59300000 
C       6.28500000      25.77300000      -3.48000000 
O       6.15300000      26.45200000      -2.44500000 
C       6.69000000      23.35800000      -3.03000000 
C       5.98500000      22.07800000      -2.57900000 
C       4.88600000      22.10000000      -1.70300000 
C       6.31500000      20.84200000      -3.03900000 
C       4.20800000      20.96900000      -1.33000000 
C       5.66100000      19.66600000      -2.62300000 
C       4.55900000      19.74200000      -1.81100000 
H       5.72500000      23.38300000      -5.44100000 
H       4.81200000      24.41600000      -2.95000000 
H       7.43000000      23.13200000      -3.78100000 
H       7.18400000      23.81600000      -2.18300000 
H       4.56400000      23.03800000      -1.29300000 
H       7.12600000      20.73900000      -3.73500000 
H       3.37900000      21.06300000      -0.65500000 
H       5.97100000      18.73300000      -3.03800000 
H       4.02000000      18.85900000      -1.53000000 
H       4.40678643      21.64478198       4.91609228 
H       5.73587296      17.04015055       4.99392880 
H       2.83919605      16.81679427       3.81032908 
H       4.76056401       9.19031830      -1.84586178 
H      14.01083424      22.00115821       2.74575245 
H      10.80641898      16.66379233      -8.93332112 
H       5.56587986      20.00479214      -9.91962405 
H       7.79585274      21.19544353      -7.55228078 
H       4.40678643      23.85521802      -4.91609228 
H       6.80354607      26.15490039      -4.24502422 
