 381 
 
N                13.4760000000       22.7870000000        9.4180000000
C                13.2970000000       21.7340000000        8.4250000000
C                14.6160000000       20.9880000000        8.2520000000
O                15.7030000000       21.5420000000        8.4680000000
C                12.8660000000       22.3330000000        7.0620000000
C                13.8190000000       23.4460000000        6.5520000000
C                13.6470000000       23.7390000000        5.0490000000
C                14.6420000000       24.8410000000        4.5660000000
N                15.9220000000       24.2970000000        3.9840000000
H                14.3940000000       23.2300000000        9.3780000000
H                12.5380000000       21.0300000000        8.7660000000
H                12.8510000000       21.5380000000        6.3170000000
H                11.8710000000       22.7660000000        7.1660000000
H                13.6150000000       24.3660000000        7.0990000000
H                14.8500000000       23.1340000000        6.7180000000
H                13.8390000000       22.8300000000        4.4790000000
H                12.6310000000       24.0880000000        4.8630000000
H                14.1560000000       25.4390000000        3.7950000000
H                14.9060000000       25.4710000000        5.4150000000
H                16.5370000000       25.0800000000        3.6830000000
H                16.4230000000       23.7280000000        4.6960000000
H                15.7120000000       23.6980000000        3.1600000000
N                14.5050000000       19.7480000000        7.7750000000
C                15.6640000000       18.9620000000        7.3580000000
C                15.3260000000       18.1330000000        6.1210000000
O                14.1640000000       17.9900000000        5.7270000000
C                16.3050000000       18.1430000000        8.4960000000
C                15.5050000000       16.9740000000        8.9740000000
C                14.4340000000       17.1500000000        9.8390000000
C                15.8500000000       15.6780000000        8.6090000000
C                13.7190000000       16.0740000000       10.3000000000
C                15.1450000000       14.5940000000        9.0920000000
C                14.0830000000       14.7920000000        9.9310000000
H                13.6180000000       19.2570000000        7.6650000000
H                16.4490000000       19.6490000000        7.0430000000
H                17.2630000000       17.7590000000        8.1450000000
H                16.4580000000       18.8030000000        9.3500000000
H                14.1600000000       18.1460000000       10.1530000000
H                16.6810000000       15.5170000000        7.9380000000
H                12.8710000000       16.2280000000       10.9510000000
H                15.4310000000       13.5920000000        8.8080000000
H                13.5280000000       13.9450000000       10.3060000000
N                16.3910000000       17.6630000000        5.4690000000
C                16.2990000000       17.0050000000        4.1740000000
C                15.6410000000       15.6320000000        4.2530000000
O                15.5860000000       14.9840000000        5.3030000000
C                17.7090000000       16.8810000000        3.5640000000
C                18.6370000000       15.8770000000        4.2920000000
C                19.4240000000       16.4230000000        5.4760000000
O                19.0840000000       17.4930000000        6.0350000000
O                20.4130000000       15.7510000000        5.8490000000
H                17.3460000000       17.7250000000        5.8210000000
H                15.6670000000       17.6070000000        3.5210000000
H                17.6120000000       16.5500000000        2.5300000000
H                18.1900000000       17.8590000000        3.5990000000
H                18.0240000000       15.0570000000        4.6660000000
H                19.3630000000       15.5010000000        3.5710000000
N                15.1860000000       15.1720000000        3.0910000000
C                14.7610000000       13.7890000000        2.9070000000
C                16.0040000000       12.9110000000        2.9340000000
O                16.8660000000       13.0030000000        2.0560000000
C                14.0020000000       13.6330000000        1.5910000000
C                12.7010000000       14.3850000000        1.5740000000
O                11.9390000000       14.3280000000        2.5700000000
O                12.4070000000       15.0250000000        0.5560000000
H                15.0980000000       15.7390000000        2.2480000000
H                14.0820000000       13.4850000000        3.7040000000
H                14.6210000000       14.0120000000        0.7780000000
H                13.7830000000       12.5770000000        1.4310000000
N                16.1120000000       12.0430000000        3.9330000000
C                17.3560000000       11.3190000000        4.1580000000
C                17.5930000000       10.2700000000        3.0830000000
O                18.6680000000       10.2190000000        2.4770000000
C                17.3080000000       10.7040000000        5.5540000000
C                18.5770000000       10.0070000000        5.9660000000
C                18.6200000000        9.6660000000        7.4380000000
O                17.5580000000        9.7650000000        8.1060000000
O                19.7160000000        9.3210000000        7.9270000000
H                15.3680000000       11.8210000000        4.5950000000
H                18.2030000000       12.0040000000        4.1100000000
H                17.1160000000       11.4970000000        6.2770000000
H                16.5030000000        9.9700000000        5.5840000000
H                18.6670000000        9.0770000000        5.4040000000
H                19.4240000000       10.6580000000        5.7480000000
N                16.6080000000        9.4220000000        2.8470000000
C                16.6130000000        8.4530000000        1.7570000000
C                15.1890000000        7.9180000000        1.6580000000
O                14.3380000000        8.2170000000        2.4980000000
C                17.6320000000        7.3350000000        1.9860000000
C                17.3170000000        6.4750000000        3.1920000000
O                16.2290000000        5.8970000000        3.3120000000
N                18.2900000000        6.3600000000        4.0870000000
H                15.7590000000        9.3760000000        3.4110000000
H                16.8810000000        8.9330000000        0.8160000000
H                17.6490000000        6.6880000000        1.1090000000
H                18.6150000000        7.7800000000        2.1400000000
H                18.1480000000        5.7960000000        4.9250000000
H                19.1800000000        6.8360000000        3.9370000000
N                14.9360000000        7.1320000000        0.6140000000
C                13.6440000000        6.4980000000        0.3950000000
C                13.7800000000        4.9830000000        0.2870000000
O                13.0980000000        4.3300000000       -0.5050000000
C                12.9300000000        7.1010000000       -0.8010000000
C                12.6340000000        8.5500000000       -0.6520000000
C                11.6100000000        8.9900000000        0.1810000000
C                13.3750000000        9.4990000000       -1.3310000000
C                11.3450000000       10.3340000000        0.3200000000
C                13.1100000000       10.8280000000       -1.1770000000
C                12.0940000000       11.2530000000       -0.3660000000
H                15.6220000000        6.9140000000       -0.1090000000
H                13.0140000000        6.6890000000        1.2630000000
H                13.5590000000        6.9790000000       -1.6830000000
H                11.9830000000        6.5810000000       -0.9430000000
H                11.0170000000        8.2700000000        0.7240000000
H                14.1710000000        9.1850000000       -1.9900000000
H                10.5470000000       10.6630000000        0.9690000000
H                13.7110000000       11.5550000000       -1.7030000000
H                11.8830000000       12.3080000000       -0.2670000000
N                 5.3080000000       16.1540000000        5.1780000000
C                 6.1400000000       17.2180000000        4.6340000000
C                 5.2890000000       18.1120000000        3.7520000000
O                 4.1050000000       17.8550000000        3.5180000000
C                 7.3930000000       16.6630000000        3.9240000000
C                 7.0580000000       15.8820000000        2.6700000000
O                 6.3040000000       16.3600000000        1.8320000000
N                 7.5970000000       14.6850000000        2.5390000000
H                 4.4430000000       15.9730000000        4.6690000000
H                 6.4950000000       17.8390000000        5.4560000000
H                 8.0380000000       17.4940000000        3.6410000000
H                 7.9210000000       15.9960000000        4.6050000000
H                 7.3990000000       14.1240000000        1.7100000000
H                 8.2120000000       14.3200000000        3.2660000000
N                 6.7030000000       19.3760000000        0.6440000000
C                 7.5720000000       19.5190000000       -0.4990000000
C                 8.8800000000       18.8070000000       -0.2420000000
O                 9.1230000000       18.3090000000        0.8600000000
H                 6.6600000000       18.4270000000        1.0160000000
H                 7.1000000000       19.0870000000       -1.3810000000
H                 7.7720000000       20.5740000000       -0.6840000000
N                 9.7510000000       18.7560000000       -1.2430000000
C                11.0610000000       18.1380000000       -1.0310000000
C                11.8420000000       18.8080000000        0.0840000000
O                11.8780000000       20.0330000000        0.2000000000
C                11.7750000000       18.3340000000       -2.3720000000
C                10.8370000000       18.9960000000       -3.2640000000
C                 9.6010000000       19.3650000000       -2.5730000000
H                10.9320000000       17.0780000000       -0.8110000000
H                12.6600000000       18.9520000000       -2.2230000000
H                12.0620000000       17.3620000000       -2.7740000000
H                11.3150000000       19.8950000000       -3.6540000000
H                10.6040000000       18.3130000000       -4.0810000000
H                 9.5110000000       20.4480000000       -2.4940000000
H                 8.7330000000       18.9560000000       -3.0900000000
N                12.4640000000       17.9890000000        0.9170000000
C                13.3970000000       18.4660000000        1.9410000000
C                12.7720000000       19.4610000000        2.9140000000
O                13.3670000000       20.4880000000        3.2350000000
C                14.6540000000       19.0220000000        1.2770000000
C                15.2840000000       18.0060000000        0.3510000000
O                15.5970000000       16.8800000000        0.7710000000
N                15.4480000000       18.3810000000       -0.9230000000
H                12.3460000000       16.9760000000        0.9130000000
H                13.6750000000       17.6160000000        2.5640000000
H                14.3930000000       19.9040000000        0.6930000000
H                15.3820000000       19.2850000000        2.0450000000
H                15.8680000000       17.7380000000       -1.5940000000
H                15.1530000000       19.3100000000       -1.2230000000
N                11.5830000000       19.1140000000        3.4360000000
C                10.8530000000       19.9740000000        4.3630000000
C                10.3580000000       19.2000000000        5.5780000000
O                 9.3060000000       19.5200000000        6.1580000000
C                 9.6810000000       20.7010000000        3.6960000000
O                 8.7320000000       19.7450000000        3.2000000000
C                10.1550000000       21.6110000000        2.6040000000
H                11.1050000000       18.2370000000        3.2290000000
H                11.5560000000       20.7350000000        4.7020000000
H                 9.1790000000       21.3310000000        4.4310000000
H                 9.1600000000       19.1580000000        2.5420000000
H                 9.3050000000       22.1170000000        2.1450000000
H                10.8350000000       22.3600000000        3.0110000000
H                10.6790000000       21.0360000000        1.8400000000
N                11.1190000000       18.2100000000        6.0180000000
C                10.7360000000       17.4620000000        7.2060000000
C                10.8920000000       18.3090000000        8.4610000000
O                11.8780000000       19.0260000000        8.6250000000
C                11.6380000000       16.2440000000        7.3380000000
C                11.4580000000       15.2970000000        6.1940000000
O                10.4180000000       14.6520000000        6.0530000000
N                12.4570000000       15.2300000000        5.3400000000
H                11.9900000000       17.9060000000        5.5840000000
H                 9.6930000000       17.1570000000        7.1170000000
H                12.6790000000       16.5670000000        7.3540000000
H                11.3970000000       15.7160000000        8.2610000000
H                12.4000000000       14.6040000000        4.5370000000
H                13.2880000000       15.8040000000        5.4810000000
N                 8.2720000000        9.8890000000       -1.7910000000
C                 7.9310000000       11.5230000000        0.0470000000
O                 8.1830000000       12.6640000000        0.4440000000
H                 7.5901704635        9.4771150187       -2.2098785567
C                 7.8820000000       11.2500000000       -1.4500000000
C                 6.4370000000       11.5230000000       -1.9300000000
C                 6.1660000000       11.2390000000       -3.3960000000
C                 4.9330000000       11.9840000000       -3.9120000000
C                 3.8160000000       12.0790000000       -2.8760000000
N                 2.5850000000       12.7330000000       -3.4350000000
H                 7.6430000000        9.1930000000       -1.3910000000
H                 8.5510000000       11.9460000000       -1.9560000000
H                 5.7600000000       10.8970000000       -1.3490000000
H                 6.2130000000       12.5760000000       -1.7580000000
H                 7.0250000000       11.5560000000       -3.9870000000
H                 5.9960000000       10.1700000000       -3.5280000000
H                 5.2210000000       12.9980000000       -4.1880000000
H                 4.5400000000       11.4580000000       -4.7820000000
H                 3.5480000000       11.0760000000       -2.5440000000
H                 4.1620000000       12.6720000000       -2.0290000000
H                 1.8450000000       12.7820000000       -2.7050000000
H                 2.8080000000       13.6970000000       -3.7540000000
H                 2.2270000000       12.1850000000       -4.2430000000
N                 9.5850000000       10.0550000000        3.7240000000
C                10.6130000000        9.1790000000        4.2690000000
C                 9.9850000000        8.3770000000        5.4020000000
O                 9.5900000000        8.9320000000        6.4290000000
C                11.8400000000        9.9670000000        4.7420000000
C                12.3930000000       10.8150000000        3.5980000000
C                11.5100000000       10.8390000000        5.9440000000
H                 9.6330000000       11.0140000000        4.0690000000
H                10.9440000000        8.4830000000        3.4980000000
H                12.6070000000        9.2580000000        5.0550000000
H                13.2630000000       11.3670000000        3.9540000000
H                12.6800000000       10.1590000000        2.7760000000
H                11.6220000000       11.5100000000        3.2670000000
H                12.4070000000       11.3800000000        6.2470000000
H                10.7260000000       11.5440000000        5.6660000000
H                11.1660000000       10.2030000000        6.7600000000
O                10.3420000000       16.5790000000        2.7890000000
H                10.9330000000       16.3660000000        2.2320000000
H                 9.7950000000       17.0720000000        2.3850000000
O                14.3190000000       12.5220000000        6.2040000000
H                15.0510000000       12.9300000000        6.2530000000
H                13.7150000000       13.1060000000        6.2090000000
O                 9.6010000000       13.0690000000        4.0220000000
H                10.2710000000       13.5760000000        4.0350000000
H                 9.1430000000       13.2540000000        4.7010000000
O                 9.8280000000       14.7200000000       -0.4070000000
H                10.6250000000       14.9800000000       -0.4500000000
H                 9.5370000000       14.9520000000        0.3460000000
O                13.4150000000       14.6280000000       -2.0840000000
H                13.8990000000       15.3110000000       -2.0150000000
H                12.6180000000       14.8940000000       -2.0870000000
O                17.1010000000       14.7430000000       -0.0640000000
H                17.3600000000       15.5060000000        0.1720000000
H                16.3110000000       14.8280000000       -0.3360000000
O                16.0200000000       21.0480000000        4.2210000000
H                16.6470000000       21.6060000000        4.1880000000
H                15.4450000000       21.2950000000        3.6610000000
O                15.7590000000       13.0810000000       -2.2930000000
H                16.3980000000       13.5420000000       -2.0010000000
H                15.0950000000       13.5930000000       -2.3470000000
O                15.0230000000       21.0640000000       -1.9060000000
H                15.6970000000       21.5650000000       -1.9060000000
H                14.3480000000       21.5640000000       -1.9060000000
O                19.7330000000       15.0790000000       -0.1270000000
H                20.4320000000       14.6630000000        0.0830000000
H                19.1690000000       14.5030000000       -0.3650000000
O                11.6840000000       12.7220000000       -3.4480000000
H                12.3610000000       12.2280000000       -3.4990000000
H                11.0140000000       12.2160000000       -3.4480000000
O                 9.8020000000       15.3910000000       -3.1240000000
H                10.6370000000       15.3010000000       -3.1250000000
H                 9.4740000000       14.6180000000       -3.1490000000
O                20.8670000000       13.7450000000       -2.2310000000
H                21.5410000000       13.2440000000       -2.2310000000
H                20.1920000000       13.2450000000       -2.2310000000
O                21.5610000000       13.8680000000        1.9630000000
H                21.9730000000       13.5090000000        1.3250000000
H                20.7550000000       13.6430000000        1.8890000000
N                13.6400000000       16.2520000000       -9.4980000000
C                12.7560000000       16.6530000000       -8.4070000000
C                12.6870000000       18.1680000000       -8.4480000000
O                13.6760000000       18.8430000000       -8.1280000000
C                13.2440000000       16.1290000000       -7.0480000000
C                13.3100000000       14.6040000000       -7.0910000000
C                12.2990000000       16.6000000000       -5.9650000000
C                13.9940000000       13.9820000000       -5.9380000000
H                14.5940000000       16.5980000000       -9.3910000000
H                11.7580000000       16.2390000000       -8.5510000000
H                14.2410000000       16.5130000000       -6.8330000000
H                12.2930000000       14.2140000000       -7.1180000000
H                13.8480000000       14.3060000000       -7.9910000000
H                12.6480000000       16.2260000000       -5.0020000000
H                12.2830000000       17.6900000000       -5.9570000000
H                11.3010000000       16.2160000000       -6.1730000000
H                13.9880000000       12.8990000000       -6.0630000000
H                15.0210000000       14.3450000000       -5.8960000000
H                13.4660000000       14.2530000000       -5.0240000000
N                14.7010000000       21.0460000000       -6.3250000000
C                15.8410000000       20.4310000000       -5.6600000000
C                16.9950000000       20.1980000000       -6.6300000000
O                18.0720000000       20.7800000000       -6.4590000000
C                15.4050000000       19.1290000000       -4.9810000000
C                16.5140000000       18.4030000000       -4.2750000000
C                17.6270000000       19.0810000000       -3.8070000000
C                16.4380000000       17.0360000000       -4.0730000000
C                18.6420000000       18.4120000000       -3.1540000000
C                17.4540000000       16.3600000000       -3.4220000000
C                18.5590000000       17.0500000000       -2.9650000000
H                14.5300000000       20.7220000000       -7.2770000000
H                16.2160000000       21.1030000000       -4.8890000000
H                14.6380000000       19.3610000000       -4.2420000000
H                15.0010000000       18.4580000000       -5.7390000000
H                17.7020000000       20.1480000000       -3.9550000000
H                15.5760000000       16.4910000000       -4.4280000000
H                19.5010000000       18.9560000000       -2.7910000000
H                17.3830000000       15.2930000000       -3.2710000000
H                19.3560000000       16.5240000000       -2.4610000000
N                22.8700000000       21.1550000000        2.9720000000
C                23.0490000000       19.9200000000        3.7220000000
C                23.9310000000       18.9220000000        2.9790000000
O                24.3460000000       17.9220000000        3.5780000000
C                21.6730000000       19.3030000000        4.0770000000
C                20.8810000000       18.9140000000        2.8970000000
C                20.8850000000       17.7050000000        2.2740000000
C                19.9660000000       19.7360000000        2.1700000000
N                20.0540000000       17.7330000000        1.1940000000
C                19.4620000000       18.9620000000        1.1140000000
C                19.4930000000       21.0420000000        2.3300000000
C                18.5160000000       19.4500000000        0.2250000000
C                18.5660000000       21.5230000000        1.4450000000
C                18.0910000000       20.7330000000        0.4030000000
H                21.9170000000       21.3080000000        2.6430000000
H                23.5390000000       20.1390000000        4.6710000000
H                21.8330000000       18.4100000000        4.6810000000
H                21.0940000000       20.0350000000        4.6410000000
H                21.4620000000       16.8480000000        2.5890000000
H                19.8990000000       16.9590000000        0.5480000000
H                19.8530000000       21.6610000000        3.1380000000
H                18.1310000000       18.8380000000       -0.5770000000
H                18.1970000000       22.5320000000        1.5570000000
H                17.3670000000       21.1470000000       -0.2830000000
N                 7.5140000000       14.7990000000       -7.6960000000
C                 7.9650000000       14.7380000000       -6.3110000000
C                 8.8160000000       13.5090000000       -6.0410000000
O                 9.7600000000       13.5740000000       -5.2490000000
C                 6.7770000000       14.7260000000       -5.3590000000
C                 6.0530000000       16.0250000000       -5.2210000000
C                 6.8100000000       17.0390000000       -4.4160000000
N                 7.2700000000       16.5370000000       -3.1250000000
C                 6.5620000000       16.5290000000       -1.9940000000
N                 5.3150000000       16.9880000000       -1.9550000000
N                 7.1240000000       16.0520000000       -0.8840000000
H                 6.5030000000       14.7770000000       -7.8260000000
H                 8.5630000000       15.6310000000       -6.1290000000
H                 6.0580000000       13.9900000000       -5.7170000000
H                 7.1340000000       14.4460000000       -4.3680000000
H                 5.8840000000       16.4430000000       -6.2130000000
H                 5.0990000000       15.8480000000       -4.7240000000
H                 7.6870000000       17.3540000000       -4.9820000000
H                 6.1610000000       17.8940000000       -4.2280000000
H                 8.2160000000       16.1590000000       -3.0840000000
H                 4.8800000000       17.3560000000       -2.8010000000
H                 4.7930000000       16.9720000000       -1.0790000000
H                 8.0810000000       15.7000000000       -0.9080000000
H                 6.5970000000       16.0380000000       -0.0110000000
H                12.8600269422       23.4302145468        9.2881838268
H                14.4340453057        4.4971084266        0.8667707452
H                 5.7700223791       15.3816430194        5.1781255754
H                 5.6851189016       18.9341496459        3.3431482230
H                 6.9914586170       19.9091139356        1.3092677340
H                10.1861468189       18.2883940890        9.1690583897
H                 8.9891031819        9.9092002348       -2.3344657092
H                 7.7600138354       10.7819000004        0.6962568999
H                 9.6644485355       10.0904093604        2.8282131351
H                 9.8883397437        7.3851731254        5.3187158740
H                13.6800479026       15.3537606693       -9.5375255653
H                11.8432167949       18.6225495855       -8.7333323976
H                13.9517560626       20.8748411558       -5.8566644661
H                16.8798952865       19.5747925180       -7.4035394879
H                23.0859575031       21.8566454660        3.4926303841
H                24.1668453780       19.0801848079        2.0201702319
H                 7.8032680353       15.5634468193       -8.0727559743
H                 8.6112002775       12.6472230345       -6.5051094002
