 324 
 
N                -9.0940000000        4.3560000000        7.6590000000
C                -8.7150000000        3.6840000000        6.4360000000
C                -7.5740000000        4.3400000000        5.6890000000
O                -7.3240000000        4.0010000000        4.5290000000
H                -8.7410000000        3.9230000000        8.5130000000
H                -8.4160000000        2.6630000000        6.6750000000
H                -9.5780000000        3.6540000000        5.7700000000
N                -6.8470000000        5.2500000000        6.3250000000
C                -5.7070000000        5.8650000000        5.6600000000
C                -4.5530000000        6.0980000000        6.6300000000
O                -3.4760000000        5.5160000000        6.4590000000
C                -6.1430000000        7.1670000000        4.9810000000
C                -5.0340000000        7.8930000000        4.2750000000
C                -3.9210000000        7.2150000000        3.8070000000
C                -5.1100000000        9.2600000000        4.0730000000
C                -2.9060000000        7.8840000000        3.1540000000
C                -4.0940000000        9.9360000000        3.4220000000
C                -2.9890000000        9.2460000000        2.9650000000
H                -7.0180000000        5.5740000000        7.2770000000
H                -5.3320000000        5.1930000000        4.8890000000
H                -6.9100000000        6.9350000000        4.2420000000
H                -6.5470000000        7.8380000000        5.7390000000
H                -3.8460000000        6.1480000000        3.9550000000
H                -5.9720000000        9.8050000000        4.4280000000
H                -2.0470000000        7.3400000000        2.7910000000
H                -4.1650000000       11.0030000000        3.2710000000
H                -2.1920000000        9.7720000000        2.4610000000
N                -4.7510000000        6.9390000000        7.6420000000
C                -3.6500000000        7.2940000000        8.5330000000
C                -4.1880000000        8.1810000000        9.6450000000
O                -5.3490000000        8.5990000000        9.6270000000
C                -2.5300000000        8.0040000000        7.7610000000
C                -2.9750000000        9.2920000000        7.0670000000
S                -2.9510000000       10.7390000000        8.1500000000
C                -1.3630000000       10.6610000000        8.8540000000
H                -5.6430000000        7.3810000000        7.8650000000
H                -3.2490000000        6.3890000000        8.9900000000
H                -1.7330000000        8.2610000000        8.4590000000
H                -2.1510000000        7.3280000000        6.9950000000
H                -2.3050000000        9.4900000000        6.2300000000
H                -3.9950000000        9.1630000000        6.7060000000
H                -1.2360000000       11.5010000000        9.5370000000
H                -1.2610000000        9.7220000000        9.3970000000
H                -0.6190000000       10.7130000000        8.0590000000
N                -3.3290000000        8.4390000000       10.6310000000
C                -3.6060000000        9.4060000000       11.6870000000
C                -2.3660000000       10.2620000000       11.8870000000
O                -1.2890000000        9.7370000000       12.1970000000
C                -3.9900000000        8.7150000000       12.9950000000
S                -2.8840000000        7.4010000000       13.4870000000
H                -2.4200000000        7.9860000000       10.7240000000
H                -4.4350000000       10.0460000000       11.3840000000
H                -3.9950000000        9.4580000000       13.7920000000
H                -4.9850000000        8.2840000000       12.8810000000
H                -3.3060000000        6.8890000000       14.6050000000
N                 2.0870000000       -1.1450000000        4.3960000000
C                 0.8600000000       -1.5650000000        5.0310000000
C                 0.6020000000       -0.8320000000        6.3250000000
O                 1.3070000000        0.1220000000        6.6760000000
H                 2.4720000000       -0.2660000000        4.7410000000
H                 0.0230000000       -1.3780000000        4.3580000000
H                 0.9120000000       -2.6320000000        5.2450000000
N                -0.4000000000       -1.2820000000        7.0760000000
C                -0.7090000000       -0.6320000000        8.3550000000
C                 0.4700000000       -0.7050000000        9.3140000000
O                 1.2210000000       -1.6850000000        9.3440000000
C                -1.9060000000       -1.4310000000        8.8830000000
C                -2.4510000000       -2.1700000000        7.7030000000
C                -1.3200000000       -2.3880000000        6.7540000000
H                -0.9960000000        0.4080000000        8.1970000000
H                -1.5730000000       -2.1250000000        9.6550000000
H                -2.6520000000       -0.7490000000        9.2910000000
H                -2.8600000000       -3.1250000000        8.0330000000
H                -3.2320000000       -1.5730000000        7.2320000000
H                -0.8450000000       -3.3530000000        6.9300000000
H                -1.6610000000       -2.3230000000        5.7210000000
N                 0.6280000000        0.3560000000       10.1020000000
C                 1.6320000000        0.4240000000       11.1430000000
C                 2.9060000000        1.1530000000       10.7580000000
O                 3.7350000000        1.4060000000       11.6200000000
H                 0.0590000000        1.2000000000       10.0360000000
H                 1.2050000000        0.9350000000       12.0060000000
H                 1.9050000000       -0.5910000000       11.4310000000
N                 3.0560000000        1.5330000000        9.5000000000
C                 4.2690000000        2.2040000000        9.0530000000
C                 4.2330000000        3.6600000000        9.4950000000
O                 3.2340000000        4.3610000000        9.2910000000
C                 4.4100000000        2.0880000000        7.5290000000
C                 4.5000000000        0.6110000000        7.1270000000
C                 5.6150000000        2.8760000000        7.0430000000
C                 5.7170000000       -0.1070000000        7.6790000000
H                 2.3600000000        1.3920000000        8.7670000000
H                 5.1340000000        1.7330000000        9.5210000000
H                 3.5270000000        2.5160000000        7.0550000000
H                 3.6140000000        0.0940000000        7.4970000000
H                 4.5430000000        0.5470000000        6.0400000000
H                 5.6910000000        2.7760000000        5.9600000000
H                 5.4850000000        3.9240000000        7.3120000000
H                 6.5130000000        2.4790000000        7.5170000000
H                 5.6990000000       -1.1440000000        7.3450000000
H                 6.6170000000        0.3860000000        7.3120000000
H                 5.6890000000       -0.0670000000        8.7680000000
N                 1.0350000000        7.8820000000       10.9690000000
C                 0.9260000000        6.4430000000       11.2060000000
C                -0.0620000000        5.9120000000       10.1760000000
O                -1.2410000000        6.2860000000       10.1950000000
C                 0.4300000000        6.1060000000       12.6190000000
C                 1.4970000000        6.4290000000       13.6620000000
C                 0.0450000000        4.6250000000       12.6730000000
C                 1.0120000000        6.2840000000       15.0960000000
H                 0.1970000000        8.4020000000       11.2300000000
H                 1.9070000000        5.9860000000       11.0760000000
H                -0.4440000000        6.7170000000       12.8460000000
H                 2.3390000000        5.7500000000       13.5250000000
H                 1.8230000000        7.4600000000       13.5230000000
H                -0.3070000000        4.3860000000       13.6770000000
H                -0.7460000000        4.4370000000       11.9470000000
H                 0.9200000000        4.0220000000       12.4330000000
H                 1.8290000000        6.5310000000       15.7740000000
H                 0.1760000000        6.9640000000       15.2580000000
H                 0.6920000000        5.2550000000       15.2600000000
N                 0.3990000000        5.0420000000        9.2820000000
C                -0.4900000000        4.5220000000        8.2600000000
C                -1.3690000000        3.4340000000        8.8400000000
O                -0.9210000000        2.6150000000        9.6500000000
C                 0.3260000000        3.9190000000        7.1290000000
S                 1.3640000000        5.1000000000        6.2920000000
H                -1.1130000000        5.3290000000        7.8750000000
H                 0.9690000000        3.1390000000        7.5370000000
H                -0.3560000000        3.4930000000        6.3930000000
H                 0.6170000000        6.0350000000        5.7840000000
H                 1.3560000000        4.6910000000        9.2440000000
N                -2.6300000000        3.4280000000        8.4250000000
C                -3.5520000000        2.3680000000        8.7990000000
C                -3.9950000000        1.5850000000        7.5850000000
O                -4.9100000000        0.7690000000        7.6800000000
C                -4.7530000000        2.9240000000        9.5690000000
O                -5.4070000000        3.9290000000        8.7890000000
C                -4.2830000000        3.5240000000       10.9090000000
H                -3.0410000000        4.1460000000        7.8280000000
H                -3.0550000000        1.6810000000        9.4840000000
H                -5.4640000000        2.1250000000        9.7760000000
H                -6.1760000000        4.2860000000        9.2800000000
H                -5.1360000000        3.9210000000       11.4590000000
H                -3.7990000000        2.7560000000       11.5120000000
H                -3.5730000000        4.3310000000       10.7280000000
N                -3.3070000000        1.7770000000        6.4670000000
C                -3.5390000000        1.0650000000        5.2230000000
C                -2.2330000000        1.1170000000        4.4510000000
O                -1.3270000000        1.8710000000        4.7960000000
C                -4.6660000000        1.7080000000        4.4200000000
H                -2.5460000000        2.4520000000        6.3890000000
H                -3.8150000000        0.0290000000        5.4190000000
H                -4.8090000000        1.1470000000        3.4970000000
H                -5.5810000000        1.6880000000        5.0130000000
H                -4.3950000000        2.7380000000        4.1900000000
N                -2.1420000000        0.3190000000        3.3900000000
C                -1.0290000000        0.4340000000        2.4570000000
C                -1.2090000000        1.7190000000        1.6640000000
O                -2.2940000000        1.9860000000        1.1380000000
C                -1.0270000000       -0.7710000000        1.5180000000
C                 0.1670000000       -0.8030000000        0.5890000000
C                 0.1060000000       -2.0780000000       -0.2840000000
C                 1.1310000000       -2.0460000000       -1.4050000000
N                 1.6330000000       -3.4160000000       -1.7360000000
H                -2.8160000000       -0.4090000000        3.1520000000
H                -0.0730000000        0.4580000000        2.9810000000
H                -1.0120000000       -1.6830000000        2.1150000000
H                -1.9280000000       -0.7420000000        0.9050000000
H                 0.1520000000        0.0710000000       -0.0620000000
H                 1.0880000000       -0.8190000000        1.1710000000
H                 0.3090000000       -2.9500000000        0.3380000000
H                -0.8850000000       -2.1610000000       -0.7310000000
H                 0.6730000000       -1.6250000000       -2.3000000000
H                 1.9800000000       -1.4360000000       -1.0990000000
H                 2.3320000000       -3.3630000000       -2.5050000000
H                 2.0820000000       -3.8420000000       -0.9000000000
H                 0.8430000000       -4.0210000000       -2.0390000000
N                 8.0140000000        1.6260000000       12.5340000000
C                 6.2900000000        0.5890000000       13.8720000000
O                 7.0660000000        0.5240000000       14.8210000000
H                 8.7010487693        1.1700816838       12.1733027895
C                 6.8070000000        0.8230000000       12.4590000000
C                 7.0880000000       -0.5120000000       11.7520000000
C                 5.8580000000       -1.3250000000       11.3620000000
C                 6.2680000000       -2.6200000000       10.6550000000
C                 5.0650000000       -3.4270000000       10.1840000000
N                 4.0190000000       -2.5840000000        9.5430000000
H                 8.5290000000        1.5200000000       13.4080000000
H                 6.0310000000        1.3490000000       11.9030000000
H                 7.6420000000       -0.3040000000       10.8370000000
H                 7.6880000000       -1.1320000000       12.4180000000
H                 5.2930000000       -1.5830000000       12.2570000000
H                 5.2360000000       -0.7420000000       10.6830000000
H                 6.8740000000       -2.3750000000        9.7830000000
H                 6.8410000000       -3.2380000000       11.3460000000
H                 5.3960000000       -4.1650000000        9.4540000000
H                 4.6150000000       -3.9270000000       11.0420000000
H                 3.2210000000       -3.1770000000        9.2390000000
H                 3.6730000000       -1.8720000000       10.2180000000
H                 4.4140000000       -2.0980000000        8.7130000000
N                 4.9750000000        0.4580000000       13.9750000000
C                 4.3530000000        0.0410000000       15.2220000000
C                 4.8460000000       -1.3530000000       15.5790000000
O                 4.7950000000       -2.2810000000       14.7660000000
C                 2.8230000000        0.0580000000       15.0970000000
C                 2.1640000000       -0.5340000000       16.3820000000
C                 2.3420000000        1.4700000000       14.8710000000
H                 4.3150000000        0.6320000000       13.2170000000
H                 4.6420000000        0.7390000000       16.0080000000
H                 2.5280000000       -0.5560000000       14.2460000000
H                 1.0800000000       -0.5110000000       16.2680000000
H                 2.5020000000       -1.5620000000       16.5130000000
H                 2.4600000000        0.0670000000       17.2420000000
H                 1.2550000000        1.4650000000       14.7840000000
H                 2.6450000000        2.0880000000       15.7170000000
H                 2.7860000000        1.8540000000       13.9530000000
N                -0.8460000000       -1.9770000000       18.0030000000
C                -1.5880000000       -1.6270000000       16.8010000000
C                -3.0780000000       -1.5470000000       17.0930000000
O                -3.7930000000       -0.7660000000       16.4520000000
C                -1.3130000000       -2.6480000000       15.7100000000
C                -1.7690000000       -2.1850000000       14.3590000000
S                -0.9700000000       -0.6940000000       13.7150000000
C                -2.1460000000       -0.1570000000       12.4750000000
H                -0.2730000000       -2.8190000000       17.9460000000
H                -1.2460000000       -0.6580000000       16.4360000000
H                -0.2400000000       -2.8340000000       15.6600000000
H                -1.8410000000       -3.5720000000       15.9470000000
H                -1.5800000000       -2.9850000000       13.6430000000
H                -2.8380000000       -1.9780000000       14.4130000000
H                -1.7730000000        0.7520000000       12.0030000000
H                -2.2590000000       -0.9440000000       11.7290000000
H                -3.1040000000        0.0400000000       12.9560000000
N                -3.8940000000        1.9420000000       17.9720000000
C                -4.0230000000        2.7690000000       16.7690000000
C                -5.3770000000        2.5490000000       16.1040000000
O                -6.0260000000        3.4990000000       15.6590000000
C                -2.8610000000        2.4910000000       15.8120000000
C                -3.0570000000        3.2810000000       14.5100000000
C                -1.5470000000        2.8210000000       16.4560000000
H                -3.1350000000        1.2610000000       17.9470000000
H                -3.9730000000        3.8180000000       17.0620000000
H                -2.8430000000        1.4290000000       15.5680000000
H                -2.2230000000        3.0730000000       13.8400000000
H                -3.9930000000        2.9720000000       14.0450000000
H                -3.0910000000        4.3450000000       14.7420000000
H                -0.7430000000        2.6120000000       15.7500000000
H                -1.5390000000        3.8770000000       16.7260000000
H                -1.4260000000        2.2080000000       17.3490000000
N                -5.8420000000        1.2990000000       16.0540000000
C                -7.1530000000        1.0300000000       15.4740000000
C                -8.2580000000        1.6980000000       16.2860000000
O                -9.2220000000        2.2230000000       15.7220000000
C                -7.3700000000       -0.4780000000       15.3810000000
C                -6.4360000000       -1.1700000000       14.3810000000
C                -6.4210000000       -2.7000000000       14.5110000000
O                -6.9760000000       -3.2530000000       15.4990000000
O                -5.8230000000       -3.3480000000       13.6270000000
H                -5.3480000000        0.4750000000       16.3970000000
H                -7.1950000000        1.4370000000       14.4640000000
H                -7.1950000000       -0.9190000000       16.3620000000
H                -8.3960000000       -0.6670000000       15.0650000000
H                -6.7600000000       -0.9250000000       13.3700000000
H                -5.4190000000       -0.8120000000       14.5440000000
N                -8.4060000000        5.3730000000       15.4680000000
C                -8.9620000000        5.6130000000       14.1500000000
C               -10.4460000000        5.8840000000       14.2250000000
O               -10.9840000000        6.6250000000       13.4010000000
C                -8.7100000000        4.3620000000       13.3080000000
C                -8.2590000000        4.6560000000       11.9710000000
C                -8.1210000000        3.4370000000       11.1080000000
O                -8.2360000000        2.2800000000       11.5720000000
O                -7.8900000000        3.6550000000        9.9280000000
H                -7.9100000000        4.4850000000       15.5520000000
H                -8.4860000000        6.4780000000       13.6880000000
H                -7.9440000000        3.7580000000       13.7950000000
H                -9.6380000000        3.7960000000       13.2310000000
H                -8.9780000000        5.3230000000       11.4950000000
H                -7.2830000000        5.1380000000       12.0260000000
O                -4.1510000000       -1.7640000000        2.9530000000
H                -3.9020000000       -2.0480000000        2.2030000000
H                -4.6310000000       -1.0890000000        2.8100000000
O               -10.2160000000        1.1710000000       13.2630000000
H                -9.4770000000        1.5700000000       13.2670000000
H               -10.8120000000        1.7630000000       13.2630000000
O                -5.2080000000       -0.7290000000       10.2060000000
H                -4.6440000000       -0.1270000000       10.0470000000
H                -5.8920000000       -0.5460000000        9.7550000000
O                 2.0210000000       -3.8260000000        7.8640000000
H                 2.4190000000       -3.3010000000        7.3430000000
H                 1.2400000000       -3.5300000000        7.9570000000
O                 3.4130000000       -2.7440000000       12.3690000000
H                 3.5570000000       -2.8290000000       13.1920000000
H                 2.6190000000       -2.4830000000       12.2870000000
O                -4.3210000000       -2.9170000000       11.4610000000
H                -4.1460000000       -2.1230000000       11.2510000000
H                -5.1580000000       -2.9900000000       11.4590000000
O                -2.5390000000       -4.4840000000       11.2920000000
H                -2.1430000000       -3.7450000000       11.2340000000
H                -3.2800000000       -4.3940000000       10.9060000000
O                -7.8380000000        1.0880000000        8.5910000000
H                -7.1850000000        1.6050000000        8.4800000000
H                -8.5290000000        1.5660000000        8.5920000000
O                -0.0380000000       -4.6640000000        3.3180000000
H                 0.6360000000       -4.1630000000        3.3180000000
H                -0.7130000000       -4.1640000000        3.3180000000
O                -7.6670000000       -0.0310000000       10.8060000000
H                -7.0970000000        0.4420000000       11.2020000000
H                -8.4210000000        0.2860000000       10.9970000000
H                -8.7805018868        5.1995606702        7.6478497209
H                -2.4184047383       11.2535255933       11.7681272060
H                 2.7207811903       -1.7711931533        4.5232931171
H                 5.0235833715        4.0619971230        9.9569266672
H                 1.7189873668        8.2147460443       11.4500835188
H                -0.4449761612        2.3565184820        1.5648145226
H                 7.8927738518        2.3937059826       12.0802029690
H                 5.2212026797       -1.5330255656       16.4882929918
H                -0.2839660037       -1.3067777338       18.2149431548
H                -3.4801628431       -2.1252989111       17.8028136495
H                -3.7429801431        2.4701831445       18.6848923963
H                -8.2052623739        1.7132061984       17.2844926211
H                -7.8198943100        6.0253866897       15.6701675720
H               -10.9956780528        5.4612721137       14.9455242344
