114
Properties=species:S:1:pos:R:3 pbc="F F F"
N       7.02400000      19.33000000       4.49000000 
C       7.65200000      17.99300000       4.45300000 
C       6.54600000      16.93600000       4.41700000 
O       6.66200000      15.92900000       3.65300000 
H       7.21100000      19.92500000       5.27100000 
H       8.20100000      17.88100000       3.53600000 
C       8.60300000      17.69200000       5.64100000 
C       9.12200000      16.23800000       5.72500000 
C      10.17500000      15.85200000       4.67400000 
N      10.38800000      14.38700000       4.65700000 
C      11.34700000      13.70200000       4.03300000 
N      12.28900000      14.28600000       3.30200000 
N      11.39300000      12.37500000       4.16800000 
H       9.43500000      18.38000000       5.57800000 
H       8.06900000      17.91000000       6.55600000 
H       9.55200000      16.12400000       6.70700000 
H       8.29200000      15.55300000       5.66200000 
H       9.86300000      16.18100000       3.70300000 
H      11.11200000      16.34300000       4.90200000 
H       9.71300000      13.81700000       5.14000000 
H      12.05100000      15.11400000       2.79800000 
H      12.98700000      13.70800000       2.87100000 
H      10.66800000      11.95100000       4.69300000 
H      12.05500000      11.80400000       3.68400000 
N       4.98600000      16.84800000       0.94100000 
C       5.87600000      16.26500000      -0.05700000 
C       5.97400000      14.78300000       0.12500000 
O       5.95600000      13.95100000      -0.84500000 
C       7.25600000      16.86500000       0.07500000 
C       8.22800000      16.47700000      -0.98000000 
O       9.31500000      15.92600000      -0.68200000 
N       7.83900000      16.70700000      -2.17400000 
H       5.36100000      17.48200000       1.62200000 
H       5.45700000      16.42900000      -1.03600000 
H       7.13900000      17.94100000       0.04800000 
H       7.66600000      16.61500000       1.04300000 
H       8.26300000      16.29000000      -2.97800000 
H       6.97900000      17.18800000      -2.33000000 
O      13.18100000      15.54200000       0.75400000 
H      13.89100000      15.94100000       1.26100000 
H      12.87100000      16.15500000       0.08900000 
O      10.18400000      15.21900000       1.74900000 
H       9.94100000      15.50800000       0.86200000 
H       9.42100000      14.87400000       2.20000000 
O      15.54200000      13.18100000      -0.75400000 
H      15.94100000      13.89100000      -1.26100000 
H      16.15500000      12.87100000      -0.08900000 
O      14.23300000      12.29600000       2.01600000 
H      14.47200000      12.41800000       1.10500000 
H      13.80300000      11.44700000       2.20400000 
O      12.29600000      14.23300000      -2.01600000 
H      12.41800000      14.47200000      -1.10500000 
H      11.44700000      13.80300000      -2.20400000 
N      18.96300000      14.16700000       0.18700000 
C      18.42200000      14.44600000       1.51400000 
C      17.88200000      13.16300000       2.14500000 
O      17.05300000      12.51100000       1.49800000 
C      17.37500000      15.53300000       1.40200000 
C      16.97900000      15.95300000       2.78300000 
C      16.13200000      17.20900000       2.71300000 
O      15.05600000      17.18900000       2.12900000 
N      16.53400000      18.25400000       3.37200000 
H      18.33000000      14.31300000      -0.57600000 
H      19.22900000      14.80700000       2.12800000 
H      17.81700000      16.36300000       0.86800000 
H      16.52400000      15.18400000       0.84300000 
H      16.38600000      15.18400000       3.25700000 
H      17.85000000      16.12600000       3.39800000 
H      17.37300000      18.24000000       3.92200000 
H      15.97500000      19.08800000       3.37800000 
N      14.21900000      21.79000000       1.89600000 
C      13.46100000      20.60900000       1.48700000 
C      13.77000000      20.21700000       0.09300000 
O      13.68700000      21.02200000      -0.82300000 
C      11.95700000      20.91700000       1.56700000 
C      11.09500000      19.72900000       1.31400000 
C      11.38200000      18.67400000       2.34900000 
C       9.61000000      20.10800000       1.46900000 
H      14.07600000      22.62900000       1.36900000 
H      13.72500000      19.82400000       2.16900000 
H      11.76300000      21.28900000       2.56400000 
H      11.74800000      21.71900000       0.87100000 
H      11.26200000      19.33400000       0.32000000 
H      10.68700000      17.85100000       2.25500000 
H      12.37700000      18.25700000       2.26800000 
H      11.27400000      19.09600000       3.33900000 
H       8.98200000      19.24700000       1.29400000 
H       9.43500000      20.46100000       2.47900000 
H       9.32800000      20.89200000       0.77700000 
N      14.16700000      18.96300000      -0.18700000 
C      14.44600000      18.42200000      -1.51400000 
C      13.16300000      17.88200000      -2.14500000 
O      12.51100000      17.05300000      -1.49800000 
C      15.53300000      17.37500000      -1.40200000 
C      15.95300000      16.97900000      -2.78300000 
C      17.20900000      16.13200000      -2.71300000 
O      17.18900000      15.05600000      -2.12900000 
N      18.25400000      16.53400000      -3.37200000 
H      14.31300000      18.33000000       0.57600000 
H      14.80700000      19.22900000      -2.12800000 
H      16.36300000      17.81700000      -0.86800000 
H      15.18400000      16.52400000      -0.84300000 
H      15.18400000      16.38600000      -3.25700000 
H      16.12600000      17.85000000      -3.39800000 
H      18.24000000      17.37300000      -3.92200000 
H      19.08800000      15.97500000      -3.37800000 
H       7.28682894      19.80533307       3.77237933 
H       5.73587296      17.04015055       4.99392880 
H       4.34020542      17.32000220       0.52849147 
H       6.05886737      14.39655792       1.04340081 
H      19.67224303      14.69941751       0.03368358 
H      18.20012119      12.87822511       3.04926886 
H      14.01083424      22.00115821       2.74575245 
H      12.87822511      18.20012119      -3.04926886 
