 225 
 
N                -3.0560000000       14.4780000000       18.0760000000
C                -3.2260000000       14.0050000000       16.7100000000
C                -4.3210000000       14.8540000000       16.0860000000
O                -5.4940000000       14.7160000000       16.4380000000
C                -3.6180000000       12.5310000000       16.6980000000
C                -2.4560000000       11.6000000000       16.9130000000
C                -1.9950000000       11.3090000000       18.1940000000
C                -1.7990000000       11.0400000000       15.8210000000
C                -0.9150000000       10.4560000000       18.3610000000
C                -0.7320000000       10.1950000000       15.9970000000
C                -0.2870000000        9.9250000000       17.2570000000
H                -3.6530000000       14.0050000000       18.7550000000
H                -2.2980000000       14.1150000000       16.1480000000
H                -4.3410000000       12.3530000000       17.4940000000
H                -4.0620000000       12.2930000000       15.7310000000
H                -2.4770000000       11.7470000000       19.0550000000
H                -2.1340000000       11.2740000000       14.8210000000
H                -0.5680000000       10.2090000000       19.3530000000
H                -0.2480000000        9.7470000000       15.1420000000
H                 0.5720000000        9.2840000000       17.3910000000
N                -3.9450000000       15.7200000000       15.1590000000
C                -4.8850000000       16.6950000000       14.6400000000
C                -5.6890000000       16.2250000000       13.4370000000
O                -6.6970000000       16.8640000000       13.1150000000
C                -4.1750000000       18.0090000000       14.3160000000
C                -3.1930000000       17.8880000000       13.2050000000
N                -1.9100000000       17.4270000000       13.4020000000
C                -3.3220000000       18.1000000000       11.8730000000
C                -1.2770000000       17.4020000000       12.2410000000
N                -2.1100000000       17.8140000000       11.3040000000
H                -3.0100000000       15.7700000000       14.7540000000
H                -5.6110000000       16.9000000000       15.4270000000
H                -4.9200000000       18.7500000000       14.0260000000
H                -3.6380000000       18.3480000000       15.2020000000
H                -1.5120000000       17.1490000000       14.2990000000
H                -4.2120000000       18.4320000000       11.3580000000
H                -0.2530000000       17.0960000000       12.0860000000
N                -5.2750000000       15.1530000000       12.7590000000
C                -5.9410000000       14.7090000000       11.5350000000
C                -5.9420000000       13.1880000000       11.5000000000
O                -4.8820000000       12.5710000000       11.3920000000
C                -5.2160000000       15.2760000000       10.3150000000
C                -5.9390000000       15.0950000000        8.9930000000
C                -5.4290000000       16.1480000000        8.0030000000
N                -5.6060000000       15.7910000000        6.6010000000
C                -6.7690000000       15.8000000000        5.9600000000
N                -7.8800000000       16.1190000000        6.6020000000
N                -6.8230000000       15.4720000000        4.6760000000
H                -4.4820000000       14.5730000000       13.0330000000
H                -6.9790000000       15.0420000000       11.5370000000
H                -5.0740000000       16.3460000000       10.4650000000
H                -4.2490000000       14.7810000000       10.2280000000
H                -5.7370000000       14.1020000000        8.5910000000
H                -7.0120000000       15.2290000000        9.1330000000
H                -5.9680000000       17.0790000000        8.1760000000
H                -4.3630000000       16.2980000000        8.1720000000
H                -4.7770000000       15.5140000000        6.0750000000
H                -7.8450000000       16.3590000000        7.5930000000
H                -8.7720000000       16.1250000000        6.1070000000
H                -5.9710000000       15.2120000000        4.1800000000
H                -7.7170000000       15.4790000000        4.1850000000
N                -7.1220000000       12.5860000000       11.5780000000
C                -7.2760000000       11.1330000000       11.5730000000
C                -8.3130000000       10.7850000000       10.5230000000
O                -9.4770000000       11.2070000000       10.6340000000
C                -7.6960000000       10.5810000000       12.9450000000
C                -6.6070000000       10.8970000000       13.9720000000
C                -7.9290000000        9.0920000000       12.8530000000
C                -6.8860000000       10.3530000000       15.3420000000
H                -6.3270000000       10.6730000000       11.2990000000
H                -8.6260000000       11.0550000000       13.2590000000
H                -5.6670000000       10.4650000000       13.6290000000
H                -6.5110000000       11.9790000000       14.0580000000
H                -8.2260000000        8.7180000000       13.8330000000
H                -8.7190000000        8.9010000000       12.1270000000
H                -7.0060000000        8.6070000000       12.5340000000
H                -6.0640000000       10.6230000000       16.0050000000
H                -7.8180000000       10.7820000000       15.7110000000
H                -6.9740000000        9.2680000000       15.2820000000
H                -8.0080000000       13.0860000000       11.6470000000
N                -4.7510000000        6.9390000000        7.6420000000
C                -3.6500000000        7.2940000000        8.5330000000
C                -4.1880000000        8.1810000000        9.6450000000
O                -5.3490000000        8.5990000000        9.6270000000
C                -2.5300000000        8.0040000000        7.7610000000
C                -2.9750000000        9.2920000000        7.0670000000
S                -2.9510000000       10.7390000000        8.1500000000
C                -1.3630000000       10.6610000000        8.8540000000
H                -5.6430000000        7.3810000000        7.8650000000
H                -3.2490000000        6.3890000000        8.9900000000
H                -1.7330000000        8.2610000000        8.4590000000
H                -2.1510000000        7.3280000000        6.9950000000
H                -2.3050000000        9.4900000000        6.2300000000
H                -3.9950000000        9.1630000000        6.7060000000
H                -1.2360000000       11.5010000000        9.5370000000
H                -1.2610000000        9.7220000000        9.3970000000
H                -0.6190000000       10.7130000000        8.0590000000
N                -3.3290000000        8.4390000000       10.6310000000
C                -3.6060000000        9.4060000000       11.6870000000
C                -2.3660000000       10.2620000000       11.8870000000
O                -1.2890000000        9.7370000000       12.1970000000
C                -3.9900000000        8.7150000000       12.9950000000
S                -2.8840000000        7.4010000000       13.4870000000
H                -2.4200000000        7.9860000000       10.7240000000
H                -4.4350000000       10.0460000000       11.3840000000
H                -3.9950000000        9.4580000000       13.7920000000
H                -4.9850000000        8.2840000000       12.8810000000
H                -3.3060000000        6.8890000000       14.6050000000
N                -2.5260000000       11.5730000000       11.7390000000
C                -1.4110000000       12.5080000000       11.7020000000
C                -1.1970000000       13.1770000000       13.0530000000
O                -2.1580000000       13.5430000000       13.7350000000
C                -1.6980000000       13.5930000000       10.6610000000
C                -0.4770000000       14.2760000000       10.0950000000
C                -0.8310000000       15.2490000000        8.9850000000
O                -1.7790000000       15.0290000000        8.2330000000
N                -0.0680000000       16.3310000000        8.8790000000
H                -3.4350000000       12.0250000000       11.6400000000
H                -0.4990000000       11.9650000000       11.4540000000
H                -2.2330000000       13.1380000000        9.8280000000
H                -2.3160000000       14.3610000000       11.1260000000
H                 0.0230000000       14.8320000000       10.8880000000
H                 0.1970000000       13.5230000000        9.6860000000
H                 0.7080000000       16.4730000000        9.5250000000
H                -0.2590000000       17.0200000000        8.1520000000
N                 0.0700000000       13.3680000000       13.4190000000
C                 0.3420000000       14.2040000000       14.5720000000
C                 1.6990000000       14.8570000000       14.4990000000
O                 2.2960000000       14.9660000000       13.4180000000
H                -0.4140000000       14.9870000000       14.6360000000
H                 0.3010000000       13.5960000000       15.4760000000
H                 0.8880000000       12.9730000000       12.9540000000
N                -1.4380000000       21.2240000000       12.2450000000
C                -0.8290000000       20.8640000000       10.9860000000
C                 0.0190000000       21.9460000000       10.3570000000
O                 0.6800000000       21.6790000000        9.3480000000
H                -0.8050000000       21.1740000000       13.0430000000
H                -0.1930000000       19.9930000000       11.1420000000
H                -1.6170000000       20.6060000000       10.2780000000
N                 5.5420000000       13.4650000000        7.5540000000
C                 4.7640000000       14.4380000000        6.8040000000
C                 5.7060000000       15.5010000000        6.2680000000
O                 6.7850000000       15.7170000000        6.8080000000
C                 3.7160000000       15.0840000000        7.7160000000
H                 5.4320000000       13.5350000000        8.5660000000
H                 4.2390000000       13.9630000000        5.9750000000
H                 3.1430000000       15.8100000000        7.1390000000
H                 3.0540000000       14.3080000000        8.1010000000
H                 4.2230000000       15.5830000000        8.5420000000
N                 6.2170000000       16.6530000000       12.1650000000
C                 4.9550000000       15.9860000000       11.8990000000
C                 5.1810000000       14.6450000000       11.2160000000
O                 6.0950000000       14.4770000000       10.4070000000
C                 4.0380000000       16.8590000000       11.0490000000
C                 3.5110000000       18.0610000000       11.7880000000
C                 2.5210000000       18.8060000000       10.9550000000
O                 1.5450000000       18.2340000000       10.4650000000
N                 2.8000000000       20.0760000000       10.7230000000
H                 6.4430000000       17.4040000000       11.5130000000
H                 4.4500000000       15.8020000000       12.8470000000
H                 4.5940000000       17.2150000000       10.1820000000
H                 3.1840000000       16.2630000000       10.7250000000
H                 3.0180000000       17.7370000000       12.7040000000
H                 4.3370000000       18.7320000000       12.0260000000
H                 3.6500000000       20.4900000000       11.1060000000
H                 2.1650000000       20.6430000000       10.1610000000
N                 4.2890000000       13.6990000000       11.5260000000
C                 4.4470000000       12.3350000000       11.0370000000
C                 3.0920000000       11.6770000000       10.8330000000
O                 2.0750000000       12.0920000000       11.3970000000
C                 5.2690000000       11.4860000000       12.0240000000
C                 4.6610000000       11.4230000000       13.4010000000
C                 3.7560000000       10.4280000000       13.7380000000
C                 4.9560000000       12.3890000000       14.3390000000
C                 3.1680000000       10.3980000000       14.9830000000
C                 4.3860000000       12.3480000000       15.5870000000
C                 3.4830000000       11.3630000000       15.9060000000
H                 3.4620000000       13.8490000000       12.1040000000
H                 4.9480000000       12.3810000000       10.0700000000
H                 5.3380000000       10.4680000000       11.6410000000
H                 6.2650000000       11.9180000000       12.1170000000
H                 3.5090000000        9.6660000000       13.0140000000
H                 5.6420000000       13.1850000000       14.0900000000
H                 2.4630000000        9.6190000000       15.2310000000
H                 4.6490000000       13.0940000000       16.3220000000
H                 3.0220000000       11.3480000000       16.8820000000
N                 3.1100000000       10.6210000000       10.0250000000
C                 1.9450000000        9.7960000000        9.7670000000
C                 2.1300000000        8.4490000000       10.4600000000
O                 3.2470000000        7.9160000000       10.5010000000
C                 1.8180000000        9.4790000000        8.2710000000
C                 1.7330000000       10.6780000000        7.3530000000
C                 1.1150000000       11.8630000000        7.7310000000
C                 2.2510000000       10.5950000000        6.0760000000
C                 1.0110000000       12.9200000000        6.8600000000
C                 2.1720000000       11.6720000000        5.2110000000
C                 1.5310000000       12.8280000000        5.6040000000
H                 3.9420000000       10.3090000000        9.5240000000
H                 1.0580000000       10.3170000000       10.1280000000
H                 2.6910000000        8.9010000000        7.9680000000
H                 0.9120000000        8.8920000000        8.1210000000
H                 0.7090000000       11.9550000000        8.7280000000
H                 2.7230000000        9.6800000000        5.7490000000
H                 0.5150000000       13.8270000000        7.1720000000
H                 2.6130000000       11.6070000000        4.2270000000
H                 1.4410000000       13.6580000000        4.9180000000
O                -2.3600000000       18.5220000000        8.5080000000
H                -1.7020000000       18.9490000000        8.8090000000
H                -3.0410000000       18.9900000000        8.6570000000
O                 0.0760000000       19.3070000000        7.5250000000
H                 0.7960000000       19.7240000000        7.4060000000
H                -0.5430000000       19.8140000000        7.2690000000
O                 0.6720000000       17.1430000000        5.9400000000
H                 1.3460000000       17.6440000000        5.9400000000
H                -0.0030000000       17.6430000000        5.9400000000
H                -2.2039375963       14.3480894935       18.3350616154
H                -8.0607522755       10.2156590936        9.7405538244
H                -4.5459298855        7.1811255031        6.7997877412
H                 2.1296510114       15.2093968963       15.3298767260
H                -1.7417077715       22.0700531114       12.2007764527
H                 0.0391290293       22.8618929380       10.7579176329
H                 5.2917088248       12.6335110859        7.3173979855
H                 5.4495576555       16.0366201740        5.4634203873
H                 6.1965556254       17.0176396878       12.9875691008
H                 1.3472955197        7.9929220483       10.8835169400
